  Page 1                                    Thu Aug  2 23:36:22 2018

  ******************************************************************
  *                           E P A N E T                          *
  *                   Hydraulic and Water Quality                  *
  *                   Analysis for Pipe Networks                   *
  *                         Version 2.00.12                        *
  ******************************************************************
  
  Richmond Standard Water Supply System. Updated 22 December 2008 
  For more information on this network, see the file Richmond_readme.txt
  with this network, or email Kobus van Zyl at kobusvanzyl@mail.com 
   
      Input Data File ................... ../Data/final_input.inp
      Number of Junctions................ 865
      Number of Reservoirs............... 1
      Number of Tanks ................... 6
      Number of Pipes ................... 949
      Number of Pumps ................... 7
      Number of Valves .................. 1
      Headloss Formula .................. Hazen-Williams
      Hydraulic Timestep ................ 15.00 min
      Hydraulic Accuracy ................ 0.001000
      Status Check Frequency ............ 3
      Maximum Trials Checked ............ 10
      Damping Limit Threshold ........... 0.000000
      Maximum Trials .................... 40
      Quality Analysis .................. None
      Specific Gravity .................. 1.00
      Relative Kinematic Viscosity ...... 1.00
      Relative Chemical Diffusivity ..... 1.00
      Demand Multiplier ................. 1.00
      Total Duration .................... 30.00 min
      Reporting Criteria:
         All Nodes
         All Links
   
   
  Hydraulic Status:
  -----------------------------------------------------------------------
     0:00:00: Balanced after 8 trials
     0:00:00: Reservoir O is emptying
     0:00:00: Tank A is emptying at 3.12 ft
     0:00:00: Tank B is emptying at 3.37 ft
     0:00:00: Tank C is emptying at 1.84 ft
     0:00:00: Tank D is emptying at 1.94 ft
     0:00:00: Tank E is filling at 2.47 ft
     0:00:00: Tank F is closed at 1.96 ft
     0:00:00: CV 1035 closed
     0:00:00: CV 1168 closed
     0:00:00: CV 1198 closed
     0:00:00: CV 1795 closed
     0:00:00: CV 1956 closed
     0:00:00: PRV v1708 open
   
     0:15:00: Pump 6D changed by Tank D control
     0:15:00: Pump 6D changed by Tank D control
     0:15:00: Pipe v1E changed by Tank E control
     0:15:00: Balanced after 8 trials
     0:15:00: Tank E is closed at 0.00 ft
     0:15:00: Pipe v1E changed from open to closed
   
     0:15:09: Pump 4B changed by Tank B control
     0:15:09: Pump 6D changed by Tank D control
     0:15:09: Pipe v1E changed by Tank E control
     0:15:09: Balanced after 17 trials
     0:15:09: Tank E is filling at 0.00 ft
     0:15:09: CV 1198 changed from closed to open
     0:15:09: CV 1216 changed from open to closed
     0:15:09: Pipe v1E changed from closed to open
     0:15:09: Pump 4B changed from closed to open
     0:15:09: Pump 6D changed from closed to open
   
     0:15:40: Pump 6D changed by Tank D control
     0:15:40: Pipe v1E changed by Tank E control
     0:15:40: Balanced after 4 trials
     0:15:40: Tank E is closed at 0.00 ft
     0:15:40: CV 1198 changed from open to closed
     0:15:40: CV 1216 changed from closed to open
     0:15:40: Pipe v1E changed from open to closed
     0:15:40: Pump 6D changed from open to closed
   
     0:30:00: Pump 6D changed by Tank D control
     0:30:00: Pipe v1E changed by Tank E control
     0:30:00: Balanced after 17 trials
     0:30:00: Tank C is closed at 1.76 ft
     0:30:00: Tank E is filling at 0.00 ft
     0:30:00: CV 1198 changed from closed to open
     0:30:00: CV 1216 changed from open to closed
     0:30:00: Pipe v1E changed from closed to open
     0:30:00: Pump 6D changed from closed to open
   
   
  Node Results at 0:00:00 hrs:
  ----------------------------------------------
                     Demand      Head  Pressure
  Node                  gpm        ft       psi
  ----------------------------------------------
  1                    0.00     70.33      0.58
  2                    0.00    187.25      1.84
  3                    0.00    187.25      1.48
  4                    0.00    187.25      1.84
  5                    0.00    187.25      1.84
  6                    0.00    187.25      0.54
  7                    0.00    187.25      1.84
  8                    0.00    187.25      1.84
  9                    0.18     70.33      0.64
  10                   0.00    187.25      9.01
  11                   0.00    187.25      8.98
  12                   0.00    187.25     14.38
  13                   0.00    187.25     14.38
  14                   0.00    187.25     17.84
  15                   0.06    187.25     21.94
  16                   0.00    187.25     26.49
  17                   0.00    187.25     26.49
  18                   0.00    187.25     26.49
  19                   0.00    187.25     23.89
  20                   0.33     70.33      2.74
  21                   0.04    187.25     23.89
  22                   0.03    187.25     23.81
  23                   0.05    187.25     21.30
  24                   0.09    187.25     20.86
  25                   0.06    187.25     21.73
  26                   0.07    187.25     21.73
  27                   0.16    187.25     19.57
  28                   0.19    187.25     20.86
  29                   0.07    187.25     21.73
  30                   0.06    187.25     20.43
  31                   0.15     70.33      2.74
  32                   0.03    187.25     20.00
  33                   0.02    187.25     19.71
  34                   0.03    187.25     20.00
  35                   0.02    187.25     19.57
  36                   0.03    187.25     18.70
  37                   0.06    187.25     18.27
  38                   0.00    187.25     18.27
  39                   0.03    187.25     18.70
  40                   0.03    187.25     18.27
  41                   0.02    187.25     18.70
  42                   0.01     70.33      2.74
  43                   0.00    187.25     18.27
  44                   0.00    187.25     28.22
  45                   0.03    187.25     33.41
  46                   0.00    187.25     34.27
  47                   0.00    187.25     34.70
  48                   0.02    187.25     34.70
  49                   0.00    187.25     34.27
  50                   0.00    187.25     34.70
  51                   0.19    187.25     34.70
  52                   0.00    187.25     35.16
  53                   0.00     70.33      2.74
  54                   0.00    187.25     34.70
  55                   0.00    187.25     33.84
  56                   0.00    187.25     42.49
  57                   0.03    187.25     43.78
  58                   0.02    187.25     17.84
  59                   0.00    187.25     17.84
  60                   0.07    187.25     16.11
  61                   0.03    187.25     15.68
  62                   0.07    187.25     15.30
  63                   0.03    187.25     14.38
  64                   0.10     70.33      2.74
  65                   0.02    187.25     15.24
  66                   0.00    187.25     13.95
  67                   0.02    187.25     13.51
  68                   0.00    187.25     13.51
  69                   0.13    187.25     13.95
  70                   0.00    187.25     15.24
  71                   0.12    187.25     16.11
  72                   0.04    187.25     14.81
  73                   0.17    187.25     16.11
  74                   0.22    187.25     17.85
  75                   0.00     70.33      2.74
  76                   0.03    187.25     17.41
  77                   0.04    187.25     17.41
  78                   0.11    187.25     20.43
  79                   0.17    187.25     24.76
  80                   0.10    187.25     26.51
  81                   0.08    187.25     25.19
  82                   0.00    187.25     28.65
  83                   0.17    187.25     26.40
  84                   0.04    187.25     23.89
  85                   0.03    187.25     36.86
  86                   0.11     70.33      2.74
  87                   0.07    187.25     32.11
  88                   0.00    187.25     38.59
  89                   0.04    187.25     38.59
  90                   0.05    187.25     39.35
  91                   0.00    187.25     38.59
  92                   0.00    187.25     38.59
  93                   0.00    187.25     38.59
  94                   0.04    187.25     38.59
  95                   0.03    187.25     35.57
  96                   0.00    187.25     33.41
  97                   0.30     70.33      3.17
  98                   0.04    187.25     31.24
  99                   0.12    187.25     33.41
  100                  0.00    187.25     31.24
  101                  0.03    187.25     32.54
  102                  0.08    187.25     32.93
  103                  0.05    187.25     38.59
  104                  0.00    187.25      1.41
  105                  0.00    187.25      4.43
  106                  0.00    187.25      4.86
  107                  0.03    187.25     15.24
  108                  0.02    187.25     15.74
  109                  0.01     70.33      3.17
  110                  0.01    187.25     15.68
  111                  0.04    187.25     22.14
  112                  0.07    187.25     22.16
  113                  0.06    187.25     23.03
  114                  0.17    187.25     23.03
  115                  0.01    187.25     22.59
  116                  0.03    187.25     22.59
  117                  0.02    187.25     20.43
  118                  0.03    187.25     23.46
  119                  0.01    187.25     23.89
  120                  0.28     70.33      8.79
  121                  0.02    187.25     24.32
  122                  0.00    187.25     24.32
  123                  0.05    187.25     24.76
  124                  0.21    187.25     24.76
  125                  0.01    187.25     23.83
  126                  0.02    187.25     23.03
  127                  0.05    187.25     22.59
  128                  0.00    187.25     18.70
  129                  0.00    187.25     18.70
  130                  0.02    187.25     19.14
  131                  0.44     70.33      8.79
  132                  0.02    187.25     21.14
  133                  0.08    187.25     18.73
  134                  0.03    187.25     16.97
  135                  0.09    187.25     17.41
  136                  0.04    187.25     20.43
  137                  0.01    187.25     20.43
  138                  0.07    187.25     19.06
  139                  0.07    187.25     18.70
  140                  0.04    187.25     17.41
  141                  0.00    187.25     17.41
  142                  0.01     70.33      8.79
  143                  0.07    187.25     22.49
  144                  0.06    187.25     16.97
  145                  0.01    187.25     16.54
  146                  0.03    187.25     16.97
  147                  0.01    187.25     26.05
  148                  0.00    187.25     26.05
  149                  0.03    187.25     26.49
  150                  0.06    187.25     26.05
  151                  0.09    187.25     22.59
  152                  0.06    187.25     27.17
  153                  0.53     70.33      8.79
  154                  0.08    187.25     22.16
  155                  0.02    187.25     26.92
  156                  0.00    187.25     26.92
  157                  0.03    187.25     26.49
  158                  0.02    187.25     26.05
  159                  0.00    187.25     26.49
  160                  0.06    187.25     25.62
  161                  0.08    187.25     23.46
  162                  0.06    187.25     22.16
  163                  0.03    187.25     23.46
  164                  0.12     70.33      8.79
  165                  0.05    187.25     26.49
  166                  0.03    187.25     26.49
  167                  0.06    187.25     24.76
  168                  0.01    187.25     25.62
  169                  0.01    187.25     25.19
  170                  0.08    187.25     16.97
  171                  0.09    187.25     20.65
  172                  0.09    187.25     23.89
  173                  0.05    187.25     26.49
  174                  0.05    187.25     31.24
  175                  0.01     70.33      8.79
  176                  0.06    187.25     33.84
  177                  0.11    187.25     26.05
  178                  0.10    187.25     21.73
  179                  0.00    187.25     22.16
  180                  0.04    187.25     22.59
  181                  0.05    187.25     24.63
  182                  0.08    187.25     26.49
  183                  0.08    187.25     29.08
  184                  0.00    187.25     29.08
  185                  0.07    187.25     30.81
  186                  0.01    187.25     32.46
  187                  0.01    187.25     28.22
  188                  0.05    187.25     26.92
  189                  0.16    187.25     28.65
  190                  0.00    187.25     34.27
  191                  0.03    187.25     33.84
  192                  0.05    187.25     35.68
  193                  0.05    187.25     23.03
  194                  0.01    187.25     22.59
  195                  0.02    187.25     24.32
  196                  0.00    187.25     23.03
  197                  0.16    187.25     31.24
  198                  0.01    187.25     21.73
  199                  0.04    187.25     23.03
  200                  0.03    187.25     22.16
  201                  0.05    187.25     23.03
  202                  0.00    187.25     23.03
  203                  0.09    187.25     22.16
  204                  0.03    187.25     22.16
  205                  0.01    187.25     22.59
  206                  0.08    187.25     22.60
  207                  0.07    187.25     22.59
  208                  0.32    187.25     21.63
  209                  0.04    187.25     22.59
  210                  0.04    187.25     24.76
  211                  0.03    187.25     26.92
  212                  0.03    187.25     26.92
  213                  0.04    187.25     27.35
  214                  0.02    187.25     31.24
  215                  0.08    187.25     21.73
  216                  0.08    187.25     21.73
  217                  0.04    187.25     22.16
  218                  0.07    187.25     23.03
  219                  0.36    187.25     13.66
  220                  0.09    187.25     21.73
  221                  0.03    187.25     24.32
  222                  0.02    187.25     20.43
  223                  0.03    187.25     21.30
  224                  0.07    187.25     19.55
  225                  0.01    187.25     25.62
  226                  0.03    187.25     25.19
  227                  0.00    187.25     31.24
  228                  0.03    187.25     31.30
  229                  0.03    187.25     29.51
  230                  0.20    187.25      5.30
  231                  0.01    187.25     32.54
  232                  0.00    187.25     34.70
  233                  0.07    187.25     36.51
  234                  0.12    187.25     27.78
  235                  0.03    187.25     28.86
  236                  0.06    187.25     30.38
  237                  0.02    187.25     30.81
  238                  0.09    187.25     32.54
  239                  0.07    187.25     36.43
  240                  0.06    187.25     36.43
  241                  0.00    187.25      5.30
  242                  0.03    187.25     36.86
  243                  0.00    187.25     34.70
  244                  0.00    187.25     34.70
  245                  0.03    187.25     36.86
  246                  0.01    187.25     37.73
  247                  0.03    187.25     37.30
  248                  0.01    187.25     37.73
  249                  0.01    187.25     37.30
  250                  0.00    187.25     36.43
  251                  0.00    187.25      5.30
  252                  0.00    187.25     37.30
  253                  0.00    187.25     36.00
  254                  0.00    187.25     36.00
  255                  0.05    187.25     33.84
  256                  0.10    187.25     31.23
  257                  0.00    187.25     20.43
  258                  0.00    187.25     20.43
  259                  0.02    187.25     20.30
  260                  0.00    187.25      5.30
  261                  0.01    187.25     19.14
  262                  0.00    187.25     19.14
  263                  0.00    187.25      1.70
  264                  0.00    187.25      1.41
  265                  0.00    243.02     25.73
  266                  0.00    243.02     25.73
  267                  0.02    243.02     25.52
  268                  0.04    243.02     17.74
  269                  0.02    243.02     14.28
  270                  0.00    243.02     14.28
  271                  0.03    243.02     12.55
  272                  0.02    243.02     12.86
  273                  0.00    187.25      5.30
  274                  0.01    243.02     13.41
  275                  0.06    243.02     12.98
  276                  0.01    243.02     11.25
  277                  0.02    243.02     11.25
  278                  0.02    243.02      9.95
  279                  0.02    243.02      9.95
  280                  0.01    243.02      9.09
  281                  0.03    243.02      8.66
  282                  0.01    243.02      7.79
  283                  0.01    243.02      8.23
  284                  0.00    187.25      0.54
  285                  0.00    243.02      7.79
  286                  0.01    243.02      7.98
  287                  0.04    243.02      7.79
  288                  0.04    243.02     10.66
  289                  0.00    243.02     10.39
  290                  0.00    243.02     10.50
  291                  0.00    243.02     10.50
  292                  0.00    243.02     10.39
  293                  0.00    243.02     10.50
  294                  0.00    243.02     10.39
  295                  0.00    243.02     10.50
  296                  0.00    243.02     10.39
  297                  0.00    243.02     10.39
  298                  0.00    187.25      0.54
  299                  0.00    243.02     10.39
  300                  0.00    243.02      2.60
  301                  0.01    243.02      3.47
  302                  0.01    243.02      6.27
  303                  0.00    243.02      3.47
  304                  0.03    243.02      4.31
  305                  0.00    187.25      0.54
  306                  0.04    243.02      6.50
  307                  0.00    243.02      6.50
  308                  0.02    243.02      6.93
  309                  0.00    243.02      8.66
  310                  0.04    243.02      7.79
  311                  0.01    243.02      9.09
  312                  0.00    243.02      9.09
  313                  0.00    243.02      9.09
  314                  0.00    243.02      9.09
  315                  0.00    243.02      9.09
  317                  0.00    243.12      9.35
  318                  0.00    187.25      1.84
  319                  0.00    243.10      9.13
  320                  0.00    243.10      9.13
  321                  0.00    243.03      9.09
  322                  0.00    243.02      9.09
  323                  0.00    243.02      9.09
  324                  0.00    243.02      9.51
  325                  0.00    243.10      9.13
  326                  0.00    243.10      9.13
  327                  0.00    243.10     10.86
  328                  0.00    243.10     16.48
  329                  0.00    243.10     17.34
  330                  0.00    243.10     17.34
  331                  0.00    187.25      0.54
  332                  0.10    243.10     17.34
  333                  0.12    243.10     17.34
  334                  0.32    243.10     13.88
  335                  0.22    243.10     13.02
  336                  0.00    243.10     17.77
  337                  0.13    243.10     16.97
  338                  0.06    243.10     16.04
  339                  0.10    243.10     16.04
  340                  0.19    243.10     14.75
  341                  0.13    243.10     14.31
  342                  0.00    187.25      0.64
  343                  0.09    243.10     14.31
  344                  0.07    243.10     13.88
  345                  0.00    243.10     13.89
  346                  0.09    243.10     15.18
  347                  0.42    243.10     16.04
  348                  0.29    243.10     18.64
  349                  0.39    243.10     16.48
  350                  0.15    243.10     17.58
  351                  0.06    243.10     20.80
  352                  0.13    243.10     19.50
  353                  0.00    219.37     14.53
  354                  0.00    243.10     19.50
  355                  0.10    243.10     19.94
  356                  0.00    219.37     14.43
  357                  0.00    219.37     14.66
  358                  0.00    219.37     14.66
  359                  0.00    219.37     14.00
  360                  0.00    219.37     14.00
  361                  0.00    219.37     14.00
  362                  0.00    219.37     14.68
  363                  0.00    219.37     14.68
  364                  0.00    219.37      9.67
  365                  0.00    219.37      9.82
  366                  0.00    219.37     10.02
  367                  0.00    219.37     10.54
  368                  0.00    219.37      6.21
  369                  0.00    219.37      6.21
  370                  0.00    219.37      6.21
  371                  0.00    219.37      6.21
  372                  0.00    219.37      6.21
  373                  0.00    219.37      6.21
  374                  0.00    219.37      7.51
  375                  0.00    219.37      9.60
  376                  0.09    219.37     11.40
  377                  0.15    219.37     10.97
  378                  0.04    219.37     11.40
  379                  0.10    219.37     11.84
  380                  0.07    219.37     14.43
  381                  0.00    219.37     14.43
  382                  0.08    219.37     16.85
  383                  0.07    219.37     17.46
  384                  0.00    219.37     19.19
  385                  0.08    219.37     19.62
  386                  0.00    219.37     20.10
  387                  0.06    219.37     14.86
  388                  0.20    219.37     16.32
  389                  0.10    219.37     20.92
  390                  0.07    219.37     17.02
  391                  0.09    219.37     19.19
  392                  0.06    219.37     17.02
  393                  0.20    219.37     14.00
  394                  0.13    219.37     18.32
  396                  0.14    219.37     21.35
  397                  0.00    219.37     22.65
  398                  0.10    219.37     18.19
  399                  0.12    219.37     17.89
  400                  0.00    219.37     17.46
  401                  0.03    219.37     11.84
  402                  0.00    219.37     11.84
  403                  0.00    219.37     13.13
  404                  0.07    219.37     12.70
  405                  0.05    219.37      9.67
  407                  0.03    219.37     12.70
  408                  0.03    219.37     11.84
  409                  0.06    219.37     10.93
  410                  0.03    219.37     10.54
  411                  0.06    219.37     14.86
  412                  0.06    219.37     15.73
  413                  0.05    219.37     15.30
  414                  0.10    219.37     17.02
  415                  0.00    219.37     14.86
  416                  0.06    219.37     18.75
  417                  0.00    219.37     15.30
  418                  0.06    219.37     17.82
  419                  0.00    219.37     14.86
  420                  0.03    219.37     14.43
  421                  0.03    219.37     14.43
  422                  0.14    219.37     17.02
  423                  0.10    219.37     22.65
  424                  0.00    219.37     23.08
  425                  0.13    219.37     19.19
  426                  0.09    219.37     23.08
  427                  0.09    219.37     19.19
  428                  0.12    219.37     22.65
  429                  0.03    219.37     24.81
  430                  0.00    219.37     24.81
  431                  0.07    219.37     25.24
  432                  0.09    219.37     20.92
  433                  0.04    219.37     20.92
  434                  0.03    219.37     22.24
  435                  0.04    219.37     23.08
  436                  0.00    219.37     26.97
  437                  0.06    219.37     19.62
  438                  0.08    219.37     21.27
  439                  0.04    219.37     19.19
  440                  0.00    219.37     18.75
  441                  0.04    219.37     18.32
  442                  0.06    219.37     20.05
  443                  0.13    219.37     19.19
  444                  0.00    219.37     18.08
  445                  0.07    219.37     23.51
  446                  0.04    219.37     23.51
  447                  0.09    219.37     23.51
  448                  0.06    219.37     21.78
  449                  0.03    219.37     21.78
  450                  0.03    219.37     24.81
  451                  0.04    219.37     23.94
  452                  0.03    219.37     25.67
  453                  0.00    219.37     22.65
  454                  0.07    219.37     31.73
  455                  0.00    219.37     32.38
  456                  0.04    219.37     34.32
  457                  0.00    219.37     34.32
  458                  0.08    219.37     34.32
  459                  0.00    219.37      7.51
  460                  0.02    219.37      8.13
  461                  0.00    219.37      4.05
  462                  0.00    243.02     14.28
  463                  0.07    243.02     18.60
  464                  0.06    243.02     20.77
  465                  0.03    243.02     20.77
  466                  0.11    243.02     21.63
  467                  0.04    243.02     24.23
  468                  0.09    243.02     24.23
  469                  0.16    243.02     26.39
  470                  0.07    243.02     25.95
  471                  0.06    243.02     23.36
  472                  0.09    243.02     19.56
  473                  0.15    243.02     21.20
  474                  0.03    243.02     13.41
  475                  0.00    243.02     13.85
  476                  0.00    219.37      9.05
  477                  0.00    219.37     30.86
  478                  0.13    219.37     17.46
  479                  0.10    219.37     28.40
  480                  0.00    219.37     30.86
  481                  0.00    219.37     31.30
  482                  0.00    219.37     28.70
  483                  0.00    219.37     28.27
  484                  0.00    219.37     29.13
  485                  0.00    219.37     29.13
  486                  0.00    219.37     29.57
  487                  0.04    219.37     30.00
  488                  0.00    219.37     30.00
  489                  0.03    219.37     30.86
  490                  0.13    219.37     27.84
  491                  0.04    219.37     29.13
  492                  0.10    219.37     30.00
  493                  0.06    219.37     27.39
  494                  0.13    219.37     19.19
  495                  0.04    219.37     30.43
  496                  0.09    219.37     25.67
  497                  0.00    219.37     25.24
  498                  0.13    219.37     19.62
  499                  0.13    219.37     31.73
  500                  0.04    219.37     27.84
  501                  0.04    219.37     27.84
  502                  0.13    219.37     22.65
  503                  0.06    219.37     23.08
  504                  0.08    219.37     22.18
  505                  0.00    219.37     20.12
  506                  0.00    219.37     19.62
  507                  0.00    219.37     20.05
  508                  0.00    219.37     20.05
  509                  0.00    219.37     20.92
  510                  0.06    219.37     19.62
  511                  0.08    219.37     23.08
  512                  0.07    219.37     24.17
  513                  0.06    219.37     24.81
  514                  0.00    219.37     24.81
  515                  0.11    219.37     19.62
  516                  0.03    219.37     23.08
  517                  0.04    219.37     22.65
  518                  0.09    219.37     25.11
  519                  0.10    219.37     24.38
  520                  0.04    219.37     27.84
  521                  0.05    219.37     25.67
  522                  0.04    219.37     26.11
  523                  0.04    219.37     26.54
  524                  0.04    219.37     26.97
  525                  0.05    219.37     27.40
  526                  0.04    219.37     27.36
  527                  0.03    219.37     26.97
  528                  0.01    219.37     27.40
  529                  0.07    219.37     26.59
  530                  0.03    219.37     27.84
  531                  0.03    219.37     20.48
  532                  0.03    219.37     18.32
  533                  0.07    219.37     18.32
  534                  0.08    219.37     16.16
  535                  0.07    219.37     12.70
  536                  0.04    219.37     12.70
  537                  0.08    219.37     11.40
  538                  0.03    219.37     11.40
  539                  0.08    219.37     10.92
  540                  0.06    219.37      8.38
  541                  0.04    219.37     18.75
  542                  0.07    219.37     13.13
  543                  0.00    219.37     13.13
  544                  0.00    219.37     13.13
  545                  0.00    219.37     16.16
  546                  0.04    219.37     17.26
  547                  0.03    219.37     17.46
  548                  0.00    219.37     16.16
  549                  0.04    219.37     17.46
  550                  0.05    219.37     18.75
  551                  0.00    219.37     17.02
  552                  0.06    219.37     17.89
  553                  0.03    219.37     20.48
  554                  0.04    219.37     22.21
  555                  0.00    219.37     21.78
  556                  0.04    219.37     20.05
  557                  0.06    219.37     23.27
  558                  0.06    219.37     21.78
  559                  0.06    219.37     20.48
  560                  0.13    219.37     20.92
  561                  0.09    219.37     20.05
  562                  0.03    219.37     16.16
  563                  0.10    219.37     22.65
  564                  0.00    219.37     25.24
  565                  0.00    219.37     25.24
  566                  0.03    219.37     24.28
  567                  0.04    219.37     24.38
  568                  0.07    219.37     23.51
  569                  0.03    219.37     24.81
  570                  0.07    219.37     26.54
  571                  0.01    219.37     25.67
  572                  0.03    219.37     25.67
  573                  0.04    219.37     25.67
  574                  0.04    219.37     25.67
  575                  0.07    219.37     25.67
  576                  0.09    219.37     26.54
  577                  0.11    219.37     24.38
  578                  0.06    219.37     26.97
  579                  0.00    219.37     28.70
  580                  0.00    219.37     28.70
  581                  0.03    219.37     28.70
  582                  0.00    219.37     28.26
  583                  0.04    219.37     28.70
  584                  0.04    219.37     26.97
  585                  0.00    219.37     27.40
  586                  0.01    219.37     27.84
  587                  0.00    219.37     27.84
  588                  0.01    219.37     28.27
  589                  0.00    219.37     28.70
  590                  0.04    219.37     28.22
  591                  0.03    219.37     30.00
  592                  0.00    219.37     30.00
  593                  0.07    219.37     30.00
  594                  0.03    219.37     30.43
  595                  0.04    219.37     30.86
  596                  0.03    219.37     30.91
  597                  0.01    219.37     31.73
  598                  0.00    219.37     32.16
  599                  0.03    219.37     31.30
  600                  0.04    219.37     31.30
  601                  0.00    219.37     31.30
  602                  0.00    219.37     28.27
  603                  0.00    219.37     28.27
  604                  0.00    219.37     28.27
  605                  0.04    219.37     28.27
  606                  0.01    219.37     30.00
  607                  0.06    219.37     30.43
  608                  0.10    219.37     30.70
  609                  0.02    219.37     31.30
  610                  0.05    219.37     31.30
  611                  0.03    219.37     31.73
  612                  0.03    219.37     32.59
  613                  0.08    219.37     32.59
  614                  0.02    219.37     33.46
  615                  0.01    219.37     33.46
  616                  0.00    219.37     33.46
  617                  0.09    219.37     33.89
  618                  0.00    219.37     33.89
  619                  0.04    219.37     34.21
  620                  0.04    219.37     33.89
  621                  0.05    219.37     35.19
  622                  0.04    219.37     35.62
  623                  0.00    219.37     35.62
  624                  0.00    219.37     35.62
  625                  0.01    219.37     30.86
  626                  0.04    219.37     26.54
  627                  0.02    219.37     30.94
  628                  0.00    219.37     31.73
  629                  0.04    219.37     32.16
  630                  0.00    219.37     33.02
  631                  0.00    219.37     33.02
  632                  0.00     70.33      0.58
  633                  0.00     70.33      0.58
  634                  0.00    187.25     20.86
  635                  0.00    187.25     20.51
  636                  0.00    260.74     52.29
  637                  0.00    260.74     52.21
  638                  0.00    260.74     52.21
  639                  0.00    260.74     52.61
  642                  0.00    260.74     52.21
  643                  0.00    260.74     51.78
  644                  0.00    260.74     44.86
  645                  0.00    260.74     44.82
  646                  0.00    260.74     44.43
  647                  0.00    260.74     43.56
  648                  0.00    260.74     43.56
  649                  0.00    260.74     43.56
  650                  0.00    260.74     43.56
  651                  0.00    260.74     43.56
  652                  0.00    260.74     40.97
  653                  0.00    260.74     38.81
  654                  0.00    260.74     39.24
  655                  0.00    260.74     39.55
  656                  0.00    260.74     39.67
  657                  0.00    260.74     39.24
  658                  0.00    260.74     39.24
  659                  0.00    260.74     39.55
  660                  0.05    260.74     39.55
  661                  0.00    260.74     39.24
  662                  0.00    260.74     40.34
  663                  0.03    260.74     40.97
  664                  0.04    260.74     34.48
  665                  0.00    260.74     34.48
  666                  0.00    260.74     37.94
  667                  0.00    260.74     38.10
  668                  0.00    260.74     37.94
  669                  0.00    260.74     37.94
  670                  0.00    260.74     38.10
  671                  0.00    260.74     39.24
  672                  0.00    260.74     34.05
  673                  0.06    260.74     34.05
  674                  0.00    260.74     32.75
  675                  0.00    260.74     32.75
  676                  0.00    260.74     32.75
  677                  0.00    260.74     32.75
  678                  0.00    260.74     32.75
  679                  0.00    260.74     35.63
  680                  0.00    260.74     37.94
  681                  0.02    260.74     39.24
  682                  0.16    260.74     24.01
  683                  0.13    260.74     20.80
  684                  0.10    260.74     18.05
  685                  0.06    260.74     15.00
  686                  0.04    260.74      8.09
  687                  0.00    260.74      1.18
  688                  0.00    260.74      1.18
  689                  0.00    260.74      1.18
  690                  0.00    260.74      1.18
  691                  0.00    260.74      1.18
  693                  0.00    260.74      1.18
  694                  0.00    260.74      1.18
  695                  0.00    260.74      1.18
  696                  0.00     70.33      0.58
  697                  0.00    243.02      9.52
  698                  0.00    243.02      9.95
  699                  0.00    242.49      9.73
  700                  0.00    242.49      9.73
  701                  0.01    242.41     19.06
  702                  0.01    242.11     25.13
  703                  0.00    242.11     25.13
  704                  0.00    241.96     12.53
  705                  0.00    241.95     12.95
  706                  0.00    241.95     12.95
  707                  0.00    241.78     10.28
  708                  0.00    241.74     15.02
  709                  0.00    241.72     15.45
  710                  0.00    241.72     15.45
  711                  0.00    241.72     12.85
  712                  0.00    241.64     15.84
  713                  0.00    241.53     14.93
  714                  0.00    241.44     20.08
  715                  0.00    241.44     20.08
  716                  0.00    241.40     16.32
  717                  0.01    241.33     20.03
  718                  0.00    241.26     22.60
  719                  0.00    241.23     22.80
  720                  0.01    241.17     23.86
  721                  0.00    241.11     25.94
  722                  0.00    240.87     17.24
  723                  0.00    240.81     18.51
  724                  0.00    240.81     18.51
  725                  0.00    240.74     15.89
  726                  0.00    240.63     17.14
  727                  0.00    240.52     15.79
  728                  0.00    240.37     14.43
  729                  0.00    240.21     16.46
  730                  0.01    237.47     28.31
  731                  0.00    237.47     28.97
  732                  0.01    209.91      3.42
  733                  0.00    209.59      3.28
  734                  0.00    209.24      2.70
  735                  0.00    209.24      2.70
  736                  0.00    209.24      2.70
  739                  0.00    209.24      3.13
  740                  0.00    209.24      3.25
  741                  0.10    209.24     16.97
  742                  0.03    209.24     22.51
  743                  0.06    209.24     19.56
  744                  0.05    209.24     14.51
  745                  0.00    209.24     13.94
  746                  0.00    209.24     13.94
  747                  0.00    237.67     26.24
  748                  0.00    209.24     14.31
  749                  0.00    237.67     26.80
  750                  0.00    237.67     26.24
  751                  0.00    237.67     26.24
  752                  0.00    237.67     26.24
  753                  0.00    237.67     26.24
  754                  0.00    237.67     26.24
  755                  0.00    237.67     23.64
  756                  0.03    237.67     23.64
  757                  0.03    237.67     21.49
  758                  0.00    237.67     21.48
  759                  0.00    237.67     20.61
  760                  0.05    237.67     17.84
  761                  0.00    237.67      1.15
  762                  0.00    237.67      0.29
  763                  0.00    237.67      1.15
  765                  0.00     70.33      0.27
  766                  0.00     70.33      0.27
  767                  0.00     70.33      0.32
  768                  0.00     70.33      0.32
  770                  0.00     70.33      0.41
  771                  0.00     70.33      0.58
  1517                 0.00    219.37     94.86
  1909                 0.00     70.33     30.41
  1925                -9.16    187.25      3.14
  1926                 0.00    187.25      3.14
  1949                 0.00    219.37     94.86
  1950                 0.00    219.37     94.86
  1977                 0.00    243.12    113.78
  640                  0.00    167.55     11.91
  641                  0.00    260.74     52.29
  838                  0.00    187.25     18.27
  868                  0.00    187.25     13.51
  877                  0.00    187.25     17.84
  890                  0.00    187.25     23.89
  916                  0.00    219.37     18.75
  930                  0.00    187.25     20.43
  962                  0.00    187.25     17.41
  969                  0.00    187.25     16.97
  1114                 0.00    187.25      5.30
  1119                 0.00    187.25      1.62
  1147                 0.00    243.02      8.66
  1156                 0.00    243.02      7.79
  1162                 0.00    243.02     10.39
  1212                 0.00    243.02      9.09
  1219                 0.00    243.02      9.51
  1231                 0.00    187.25      0.54
  1238                 0.00    243.10     17.77
  1260                 0.00    243.10     21.23
  1268                 0.00    243.10     19.86
  1276                 0.00    219.37     14.00
  1289                 0.00    219.37      6.21
  1328                 0.00    219.37     20.92
  1341                 0.00    219.37     22.65
  1378                 0.00    219.37     23.08
  1394                 0.00    219.37     27.36
  1425                 0.00    219.37      4.05
  1442                 0.00    219.37     10.97
  1446                 0.00    219.37      8.38
  1451                 0.00    219.37     30.86
  1671                 0.00    260.74     43.56
  1697                 0.00    260.74     39.55
  1712                 0.00    260.74     38.10
  1720                 0.00    260.74     32.75
  1735                 0.00    260.74      1.18
  1748                 0.00    243.02      9.95
  1787                 0.00    209.24      3.13
  1808                 0.00    237.67     26.24
  1811                 0.00    209.24     13.94
  2016                 0.00     70.33     30.41
  2019                 0.00     70.33     30.41
  1791                 0.00    205.48     -0.22
  1088                 0.00    187.25     36.86
  1109                 0.00    187.25     20.30
  1469                 0.00    219.37     27.39
  316                  0.00    243.12      9.35
  769                  0.00     70.33      0.41
  773                  0.00    219.37     -0.16
  775                  0.00    243.12      8.27
  777                  0.00    237.67     -0.14
  1034                 0.00     70.33      8.79
  1125                 0.00    243.02     25.52
  1167                 0.00    243.02     10.50
  1171                 0.00    243.02     10.39
  1215                 0.00    243.02      9.09
  1302                 0.00    219.37      9.82
  1643                 0.00     70.33      0.27
  1693                 0.00     70.33      0.32
  1794                 0.00    205.48      1.07
  1896                 0.00    207.36     89.67
  1931                 0.00    187.25     80.97
  1954                 0.00    219.37     94.86
  1971                 0.00    237.67    102.78
  2003                 0.00     70.33     30.41
  798                  0.00    187.25     14.38
  1199                 0.00    243.02      9.09
  1265                 0.00    219.37     14.43
  1305                 0.00    219.37      9.67
  1684                 0.00    260.74     39.67
  1818                 0.00    237.67     26.24
  1821                 0.00    237.67     26.24
  1834                 0.00    237.67      1.15
  1846                 0.00     70.33      0.41
  1899                 0.00    219.37     94.86
  1912                 0.00     70.33     30.41
  1934                 0.00    187.25     80.97
  1960                 0.00     70.33     30.41
  1963                 0.00     70.33     30.41
  1992                 0.00    243.12    113.78
  2009                 0.00     70.33     30.41
  2012                 0.00     70.33     30.41
  1708                 0.00    260.74     38.10
  1815                 0.00    209.24     90.48
  1658                 0.00    167.55     72.45
  1690                 0.00     70.33     30.41
  1648                 0.00    187.25     80.97
  1005                 0.00     70.33     30.41
  1250                 0.00    187.25     80.97
  2002                 0.00     70.33     30.41
  774                  0.00    187.25     -0.32
  776                  0.00    205.48     -0.22
  1179                 0.00    187.25     80.97
  1197                 0.00    243.02      8.23
  1283                 0.00    219.37      8.38
  1838                 0.00    237.67     -0.14
  1944                 0.00    219.37     94.86
  O                   -2.56     70.33     29.98  Reservoir
  A                   -1.17    187.25      1.35  Tank
  B                  -10.80    219.37      1.46  Tank
  C                   -0.69    260.74      0.80  Tank
  D              -220361.38    243.12      0.84  Tank
  E               220356.33    205.48      1.07  Tank
  F                   -0.11    237.67      0.85  Tank
   
   
  Link Results at 0:00:00 hrs:
  ----------------------------------------------
                       Flow  Velocity  Headloss
  Link                  gpm       fps   /1000ft
  ----------------------------------------------
  785                  9.28      0.00      0.00
  786                  0.00      0.00      0.00
  787                  2.56      0.00      0.00
  788                  9.28      0.00      0.00
  789                  5.71      0.00      0.00
  790                  3.58      0.00      0.00
  791                  5.71      0.00      0.00
  792                 -0.00      0.00      0.00
  793                  5.71      0.00      0.00
  794                  2.38      0.00      0.00
  795                  3.58      0.00      0.00
  796                  3.58      0.00      0.00
  797                -46.05      0.00      0.00
  799                -46.05      0.00      0.00
  800                 49.63      0.00      0.00
  801                -12.71      0.00      0.00
  802                  1.35      0.00      0.00
  803                 48.28      0.00      0.00
  804                  1.30      0.00      0.00
  805                  0.26      0.00      0.00
  806                 -1.04      0.00      0.00
  807                  1.04      0.00      0.00
  808                  1.04      0.00      0.00
  809                  0.35      0.00      0.00
  810                  0.69      0.00      0.00
  811                  0.03      0.00      0.00
  812                  0.28      0.00      0.00
  813                  2.06      0.00      0.00
  814                  0.23      0.00      0.00
  815                 28.47      0.00      0.00
  816                -28.32      0.00      0.00
  817                 29.10      0.00      0.00
  818                 33.51      0.00      0.00
  819                 -4.48      0.00      0.00
  820                  5.03      0.00      0.00
  821                 26.01      0.00      0.00
  822                -21.16      0.00      0.00
  823                 21.46      0.00      0.00
  824                  0.24      0.00      0.00
  825                  0.02      0.00      0.00
  826                  0.20      0.00      0.00
  827                  1.90      0.00      0.00
  828                  0.02      0.00      0.00
  829                  0.15      0.00      0.00
  830                  0.09      0.00      0.00
  831                  0.04      0.00      0.00
  832                 25.30      0.00      0.00
  833                -25.27      0.00      0.00
  834                 25.30      0.00      0.00
  835                  0.02      0.00      0.00
  836                  0.00      0.00      0.00
  837                  0.00      0.00      0.00
  840                  0.01      0.00      0.00
  841                  1.89      0.00      0.00
  842                  0.26      0.00      0.00
  843                  0.00      0.00      0.00
  844                  0.23      0.00      0.00
  845                  0.02      0.00      0.00
  846                  0.22      0.00      0.00
  847                  0.00      0.00      0.00
  848                  0.00      0.00      0.00
  849                  0.22      0.00      0.00
  850                  0.00      0.00      0.00
  851                  0.03      0.00      0.00
  852                 -0.00      0.00      0.00
  853                  0.03      0.00      0.00
  854                 33.85      0.00      0.00
  855                 14.41      0.00      0.00
  856                 33.85      0.00      0.00
  857                  0.03      0.00      0.00
  858                 33.75      0.00      0.00
  859                  0.04      0.00      0.00
  860                 33.64      0.00      0.00
  861                  0.02      0.00      0.00
  862                  0.00      0.00      0.00
  863                  0.01      0.00      0.00
  864                  1.79      0.00      0.00
  865                  0.00      0.00      0.00
  866                 33.63      0.00      0.00
  867                  0.00      0.00      0.00
  870                 33.34      0.00      0.00
  871                  0.16      0.00      0.00
  872                  0.12      0.00      0.00
  873                  0.04      0.00      0.00
  874                -12.87      0.00      0.00
  875                 14.19      0.00      0.00
  876                 -0.00      0.00      0.00
  879                -14.16      0.00      0.00
  880                  1.24      0.00      0.00
  881                 18.39      0.00      0.00
  882                -17.26      0.00      0.00
  883                  0.10      0.00      0.00
  884                 18.12      0.00      0.00
  885                  0.00      0.00      0.00
  886                 18.04      0.00      0.00
  887                  0.04      0.00      0.00
  888                 17.83      0.00      0.00
  889                  0.00      0.00      0.00
  892                 17.33      0.00      0.00
  893                  0.47      0.00      0.00
  894                  1.68      0.00      0.00
  895                  0.13      0.00      0.00
  896                  0.34      0.00      0.00
  897                  0.05      0.00      0.00
  898                  0.04      0.00      0.00
  899                  0.04      0.00      0.00
  900                  0.04      0.00      0.00
  901                  0.04      0.00      0.00
  902                  0.31      0.00      0.00
  903                  0.04      0.00      0.00
  904                  0.27      0.00      0.00
  905                  0.01      0.00      0.00
  906                  1.37      0.00      0.00
  907                  0.13      0.00      0.00
  908                  0.03      0.00      0.00
  909                  0.13      0.00      0.00
  910                  0.05      0.00      0.00
  911                  5.71      0.00      0.00
  912                 -0.00      0.00      0.00
  913                  5.71      0.00      0.00
  914                  5.71      0.00      0.00
  915                 -0.00      0.00      0.00
  918                  0.02      0.00      0.00
  919                  0.01      0.00      0.00
  920                  5.65      0.00      0.00
  921                  5.58      0.00      0.00
  922                  0.03      0.00      0.00
  923                  0.29      0.00      0.00
  924                  5.21      0.00      0.00
  925                  0.17      0.00      0.00
  926                  0.06      0.00      0.00
  927                  0.03      0.00      0.00
  928                  0.02      0.00      0.00
  929                  0.00      0.00      0.00
  932                  5.20      0.00      0.00
  933                  0.00      0.00      0.00
  934                  5.18      0.00      0.00
  935                  1.10      0.00      0.00
  936                 54.84      0.00      0.00
  937                -49.70      0.00      0.00
  938                 16.95      0.00      0.00
  939                 37.67      0.00      0.00
  940                  0.02      0.00      0.00
  941                 16.92      0.00      0.00
  942                 18.06      0.00      0.00
  943                 -1.19      0.00      0.00
  944                 18.07      0.00      0.00
  945                  0.02      0.00      0.00
  946                 18.05      0.00      0.00
  947                 17.47      0.00      0.00
  948                  0.56      0.00      0.00
  949                  0.01      0.00      0.00
  950                  0.65      0.00      0.00
  951                  0.03      0.00      0.00
  952                 17.36      0.00      0.00
  953                 17.27      0.00      0.00
  954                  0.01      0.00      0.00
  955                  0.51      0.00      0.00
  956                -15.66      0.00      0.00
  957                 16.10      0.00      0.00
  958                  1.53      0.00      0.00
  959                  0.00      0.00      0.00
  960                  1.49      0.00      0.00
  961                 -0.00      0.00      0.00
  964                  0.10      0.00      0.00
  965                  1.31      0.00      0.00
  966                  0.01      0.00      0.00
  967                  0.03      0.00      0.00
  968                  0.00      0.00      0.00
  971                  0.00      0.00      0.00
  972                  1.30      0.00      0.00
  973                 13.83      0.00      0.00
  974                -12.56      0.00      0.00
  975                 15.41      0.00      0.00
  976                 -1.65      0.00      0.00
  977                 15.33      0.00      0.00
  978                 -1.71      0.00      0.00
  979                 13.54      0.00      0.00
  980                  0.12      0.00      0.00
  981                  0.00      0.00      0.00
  982                -12.58      0.00      0.00
  983                  0.02      0.00      0.00
  984                -12.63      0.00      0.00
  985                -13.31      0.00      0.00
  986                  0.69      0.00      0.00
  987                  3.98      0.00      0.00
  988                -17.36      0.00      0.00
  989                  3.91      0.00      0.00
  990                 17.39      0.00      0.00
  991                  0.42      0.00      0.00
  992                  0.22      0.00      0.00
  993                  0.01      0.00      0.00
  994                 27.68      0.00      0.00
  995                -27.30      0.00      0.00
  996                  0.01      0.00      0.00
  997                  0.01      0.00      0.00
  998                 27.59      0.00      0.00
  999                 27.52      0.00      0.00
  1000                27.43      0.00      0.00
  1001                27.34      0.00      0.00
  1002                 0.06      0.00      0.00
  1003                 0.11      0.00      0.00
  1004                -0.00      0.00      0.00
  1010                47.11      0.00      0.00
  1011                -9.54      0.00      0.00
  1012                 0.04      0.00      0.00
  1013                47.07      0.00      0.00
  1014                47.02      0.00      0.00
  1015                49.86      0.00      0.00
  1016                -2.91      0.00      0.00
  1017                 0.08      0.00      0.00
  1018                 0.07      0.00      0.00
  1019                 0.01      0.00      0.00
  1020                -0.01      0.00      0.00
  1021                10.09      0.00      0.00
  1022               -13.05      0.00      0.00
  1023                 0.08      0.00      0.00
  1024                 9.85      0.00      0.00
  1025                 0.03      0.00      0.00
  1026                 0.05      0.00      0.00
  1027                -3.34      0.00      0.00
  1028                -9.76      0.00      0.00
  1029                 0.02      0.00      0.00
  1030                -3.37      0.00      0.00
  1031                 0.01      0.00      0.00
  1032                -9.78      0.00      0.00
  1033                -0.00      0.00      0.00
  1035                 0.00      0.00      0.00
  1036                -0.17      0.00      0.00
  1037                 0.03      0.00      0.00
  1038                 0.00      0.00      0.00
  1039                -9.58      0.00      0.00
  1040                14.87      0.00      0.00
  1041               -24.54      0.00      0.00
  1042               -15.85      0.00      0.00
  1043                30.69      0.00      0.00
  1044               -15.86      0.00      0.00
  1045                27.24      0.00      0.00
  1046                 0.04      0.00      0.00
  1047                27.13      0.00      0.00
  1048                -0.49      0.00      0.00
  1049                19.73      0.00      0.00
  1050                 7.36      0.00      0.00
  1051                 3.84      0.00      0.00
  1052                -7.32      0.00      0.00
  1053                11.12      0.00      0.00
  1054                27.32      0.00      0.00
  1055               -16.22      0.00      0.00
  1056               -25.80      0.00      0.00
  1057                13.65      0.00      0.00
  1058               -39.53      0.00      0.00
  1059                12.52      0.00      0.00
  1060                 1.09      0.00      0.00
  1061               -27.09      0.00      0.00
  1062                 0.03      0.00      0.00
  1063                 0.97      0.00      0.00
  1064                -0.85      0.00      0.00
  1065                 0.03      0.00      0.00
  1066                 0.92      0.00      0.00
  1067                16.95      0.00      0.00
  1068                 0.03      0.00      0.00
  1069                16.91      0.00      0.00
  1070                 0.08      0.00      0.00
  1071                16.83      0.00      0.00
  1072                 0.03      0.00      0.00
  1073                 0.01      0.00      0.00
  1074                -1.05      0.00      0.00
  1075                35.09      0.00      0.00
  1076               -18.25      0.00      0.00
  1077                21.06      0.00      0.00
  1078                13.95      0.00      0.00
  1079                 0.03      0.00      0.00
  1080                27.24      0.00      0.00
  1081                 0.02      0.00      0.00
  1082                 4.76      0.00      0.00
  1083                18.63      0.00      0.00
  1084                44.73      0.00      0.00
  1085               -26.15      0.00      0.00
  1086                18.25      0.00      0.00
  1087                26.44      0.00      0.00
  1089                26.44      0.00      0.00
  1090                -1.05      0.00      0.00
  1091                 0.00      0.00      0.00
  1092                 6.70      0.00      0.00
  1093                19.71      0.00      0.00
  1094                 6.69      0.00      0.00
  1095                26.37      0.00      0.00
  1096                13.67      0.00      0.00
  1097                12.68      0.00      0.00
  1098               -12.50      0.00      0.00
  1099               -12.50      0.00      0.00
  1100                12.68      0.00      0.00
  1101                -1.05      0.00      0.00
  1102                 0.00      0.00      0.00
  1103                12.68      0.00      0.00
  1104                 0.14      0.00      0.00
  1105                -0.00      0.00      0.00
  1106                 0.04      0.00      0.00
  1107                -0.00      0.00      0.00
  1108                 0.04      0.00      0.00
  1110                 0.04      0.00      0.00
  1111                 0.01      0.00      0.00
  1112                 0.00      0.00      0.00
  1113                 0.00      0.00      0.00
  1116                -1.05      0.00      0.00
  1117                -0.00      0.00      0.00
  1118                 0.00      0.00      0.00
  1121                 0.00      0.00      0.00
  1127                -0.00      0.00      0.00
  1128                 0.00      0.00      0.00
  1129                -0.02      0.00      0.00
  1130                -0.06      0.00      0.00
  1131                 0.96      0.00      0.00
  1132                -1.04      0.00      0.00
  1133                 0.96      0.00      0.00
  1134                 0.09      0.00      0.00
  1135                -1.16      0.00      0.00
  1136                 0.07      0.00      0.00
  1137                 0.06      0.00      0.00
  1138                -1.05      0.00      0.00
  1139                 0.02      0.00      0.00
  1140                -1.19      0.00      0.00
  1141                 0.02      0.00      0.00
  1142                -1.22      0.00      0.00
  1143                 0.04      0.00      0.00
  1144                -1.27      0.00      0.00
  1145                 0.01      0.00      0.00
  1146                -0.00      0.00      0.00
  1149                -1.28      0.00      0.00
  1150                 0.01      0.00      0.00
  1151                -1.29      0.00      0.00
  1152                -1.05      0.00      0.00
  1153                 0.00      0.00      0.00
  1154                -1.33      0.00      0.00
  1155                -0.00      0.00      0.00
  1158                 0.16      0.00      0.00
  1159                -1.53      0.00      0.00
  1160                 0.16      0.00      0.00
  1161                 0.00      0.00      0.00
  1164                -0.00      0.00      0.00
  1165                 0.16      0.00      0.00
  1166                -0.00      0.00      0.00
  1168                 0.00      0.00      0.00
  1169                 0.16      0.00      0.00
  1170                 0.16      0.00      0.00
  1172                 0.16      0.00      0.00
  1173                 0.16      0.00      0.00
  1174                 0.16      0.00      0.00
  1175                 0.16      0.00      0.00
  1176                 0.16      0.00      0.00
  1177                 0.16      0.00      0.00
  1178                -1.05      0.00      0.00
  1180                -1.05      0.00      0.00
  1181                 0.16      0.00      0.00
  1182                 0.01      0.00      0.00
  1183                 0.14      0.00      0.00
  1184                 0.14      0.00      0.00
  1185                16.05      0.00      0.00
  1186               -15.94      0.00      0.00
  1187                 0.00      0.00      0.00
  1188                16.01      0.00      0.00
  1189                -1.05      0.00      0.00
  1190                 0.00      0.00      0.00
  1191                15.98      0.00      0.00
  1193                -1.54      0.00      0.00
  1194                 0.00      0.00      0.00
  1195                 0.00      0.00      0.00
  1196                -0.00      0.00      0.00
  1198                 0.00      0.00      0.00
  1200                 0.00      0.00      0.00
  1201                 0.00      0.00      0.00
  1203                 0.00      0.00      0.00
  1204            220361.38      4.00      0.41
  1205            220361.38      9.00      2.94
  1206            220361.38      4.00      0.41
  1207                 9.28      0.00      0.00
  1208            220358.20     14.06     10.62
  1209                 3.17      0.00      0.00
  1210            220358.20      4.00      0.41
  1211                 0.00      0.00      0.00
  1214                 1.54      0.00      0.00
  1216                 1.54      0.00      0.00
  1217            220356.66      4.00      0.41
  1218                -0.00      0.00      0.00
  1221            220356.66      4.00      0.40
  1222                 0.00      0.00      0.00
  1223                 3.17      0.00      0.00
  1224                 3.17      0.00      0.00
  1225                 3.17      0.00      0.00
  1226                 3.17      0.00      0.00
  1227                 0.10      0.00      0.00
  1228                 3.08      0.00      0.00
  1229                -0.00      0.00      0.00
  1230                 0.00      0.00      0.00
  1233                 0.54      0.00      0.00
  1234                 2.41      0.00      0.00
  1235                 0.22      0.00      0.00
  1236                 2.41      0.00      0.00
  1237                 0.00      0.00      0.00
  1240                25.87      0.00      0.00
  1241               -23.59      0.00      0.00
  1242                 0.10      0.00      0.00
  1243                25.71      0.00      0.00
  1244                 0.38      0.00      0.00
  1245                25.14      0.00      0.00
  1246                 0.09      0.00      0.00
  1247                 0.07      0.00      0.00
  1248                 0.09      0.00      0.00
  1249                -0.00      0.00      0.00
  1252                 0.00      0.00      0.00
  1253                 3.34      0.00      0.00
  1254                21.38      0.00      0.00
  1255                 2.99      0.00      0.00
  1256                 0.06      0.00      0.00
  1257                -2.60      0.00      0.00
  1258                 0.23      0.00      0.00
  1259                 0.00      0.00      0.00
  1262                 0.00      0.00      0.00
  1263                 0.10      0.00      0.00
  1266                -0.00      0.00      0.00
  1267                 0.00      0.00      0.00
  1270                -0.00      0.00      0.00
  1271                -0.00      0.00      0.00
  1272                 0.00      0.00      0.00
  1273                -0.00      0.00      0.00
  1274                -0.00      0.00      0.00
  1275                -0.00      0.00      0.00
  1278                -0.00      0.00      0.00
  1279                -0.00      0.00      0.00
  1280                -0.00      0.00      0.00
  1281                10.80      0.00      0.00
  1282               227.52      0.00      0.00
  1284               227.52      0.00      0.00
  1285                10.80      0.00      0.00
  1286                10.77      0.00      0.00
  1287                 0.02      0.00      0.00
  1288                 0.00      0.00      0.00
  1291                10.77      0.00      0.00
  1292                70.77      0.00      0.00
  1293               -59.99      0.00      0.00
  1294                70.77      0.00      0.00
  1295                70.77      0.00      0.00
  1296                10.77      0.00      0.00
  1297                 6.58      0.00      0.00
  1298                 4.20      0.00      0.00
  1299                -6.58      0.00      0.00
  1300                 6.58      0.00      0.00
  1301                10.80      0.00      0.00
  1303                10.80      0.00      0.00
  1304               227.52      0.00      0.00
  1306               227.52      0.00      0.00
  1307                27.22      0.00      0.00
  1308               -20.74      0.00      0.00
  1309                27.08      0.00      0.00
  1310               -10.05      0.00      0.00
  1311               -10.72      0.00      0.00
  1312                -1.11      0.00      0.00
  1313                -9.05      0.00      0.00
  1314                16.28      0.00      0.00
  1315                 4.86      0.00      0.00
  1316                11.42      0.00      0.00
  1317                13.82      0.00      0.00
  1318                -9.04      0.00      0.00
  1319                13.75      0.00      0.00
  1320                -9.04      0.00      0.00
  1321                 4.62      0.00      0.00
  1323                 4.62      0.00      0.00
  1324                10.25      0.00      0.00
  1325                 0.10      0.00      0.00
  1326                 0.91      0.00      0.00
  1327                 0.00      0.00      0.00
  1330                 0.09      0.00      0.00
  1331                 0.74      0.00      0.00
  1332                -0.37      0.00      0.00
  1333                 1.05      0.00      0.00
  1334                -0.57      0.00      0.00
  1335                 8.55      0.00      0.00
  1336                -7.63      0.00      0.00
  1337                 0.00      0.00      0.00
  1338                 8.41      0.00      0.00
  1340                 0.00      0.00      0.00
  1343                 0.68      0.00      0.00
  1344                 0.00      0.00      0.00
  1345                 0.26      0.00      0.00
  1346                 3.90      0.00      0.00
  1347                 0.07      0.00      0.00
  1348                 0.19      0.00      0.00
  1349                 0.07      0.00      0.00
  1350                18.89      0.00      0.00
  1351               -18.75      0.00      0.00
  1352                18.86      0.00      0.00
  1359                 0.06      0.00      0.00
  1360                18.77      0.00      0.00
  1361                 0.32      0.00      0.00
  1362                 3.52      0.00      0.00
  1363                 0.05      0.00      0.00
  1364                 0.22      0.00      0.00
  1365                 0.00      0.00      0.00
  1366                 0.00      0.00      0.00
  1367                 0.06      0.00      0.00
  1368                 0.06      0.00      0.00
  1369                 1.03      0.00      0.00
  1370                 2.50      0.00      0.00
  1371                 0.03      0.00      0.00
  1372                 0.97      0.00      0.00
  1373                 1.08      0.00      0.00
  1374                -0.25      0.00      0.00
  1375                 0.00      0.00      0.00
  1376                 0.98      0.00      0.00
  1377                 0.00      0.00      0.00
  1380                -5.12      0.00      0.00
  1381                 4.73      0.00      0.00
  1382                -4.22      0.00      0.00
  1383                13.04      0.00      0.00
  1384                -8.39      0.00      0.00
  1385                 0.10      0.00      0.00
  1386                12.82      0.00      0.00
  1387                -0.00      0.00      0.00
  1388                 0.07      0.00      0.00
  1389                 4.34      0.00      0.00
  1390                 0.03      0.00      0.00
  1391                 4.27      0.00      0.00
  1392                 0.00      0.00      0.00
  1393                 0.00      0.00      0.00
  1396                -5.72      0.00      0.00
  1397                 8.16      0.00      0.00
  1398                 0.08      0.00      0.00
  1399                -5.89      0.00      0.00
  1400                 6.84      0.00      0.00
  1401                -6.80      0.00      0.00
  1402                 6.84      0.00      0.00
  1403                44.73      0.00      0.00
  1404               -36.62      0.00      0.00
  1405                 0.00      0.00      0.00
  1406                44.60      0.00      0.00
  1407                 0.04      0.00      0.00
  1408                44.49      0.00      0.00
  1409                36.71      0.00      0.00
  1410                 7.68      0.00      0.00
  1411                 0.03      0.00      0.00
  1412                 0.04      0.00      0.00
  1413                 0.03      0.00      0.00
  1414                 7.58      0.00      0.00
  1415                 1.69      0.00      0.00
  1416                 1.61      0.00      0.00
  1417                -8.92      0.00      0.00
  1418                10.53      0.00      0.00
  1419                -8.96      0.00      0.00
  1420                 1.57      0.00      0.00
  1421                 1.49      0.00      0.00
  1422                 0.02      0.00      0.00
  1423                 0.00      0.00      0.00
  1424                 0.00      0.00      0.00
  1427                 0.96      0.00      0.00
  1428                 0.06      0.00      0.00
  1429                 0.83      0.00      0.00
  1430                -6.94      0.00      0.00
  1431                 7.74      0.00      0.00
  1432                -2.41      0.00      0.00
  1433                -4.64      0.00      0.00
  1434                 0.09      0.00      0.00
  1435                 7.61      0.00      0.00
  1436                 0.07      0.00      0.00
  1437                 7.38      0.00      0.00
  1438                 4.91      0.00      0.00
  1439                 0.18      0.00      0.00
  1440                 0.03      0.00      0.00
  1441                -0.00      0.00      0.00
  1444                 0.00      0.00      0.00
  1445                 0.00      0.00      0.00
  1448                -0.00      0.00      0.00
  1449                -0.00      0.00      0.00
  1450                 0.00      0.00      0.00
  1453                -0.13      0.00      0.00
  1454                 0.00      0.00      0.00
  1455                -0.23      0.00      0.00
  1456                 0.00      0.00      0.00
  1457                 0.00      0.00      0.00
  1458                -0.23      0.00      0.00
  1459                 0.00      0.00      0.00
  1460                -0.23      0.00      0.00
  1461                 0.07      0.00      0.00
  1462                -0.30      0.00      0.00
  1463                 0.00      0.00      0.00
  1464                 0.03      0.00      0.00
  1465                14.61      0.00      0.00
  1466               -15.03      0.00      0.00
  1467                15.13      0.00      0.00
  1468                -0.57      0.00      0.00
  1470                -0.57      0.00      0.00
  1471                 0.13      0.00      0.00
  1472                -0.75      0.00      0.00
  1473                 0.22      0.00      0.00
  1474                -1.01      0.00      0.00
  1475                 0.00      0.00      0.00
  1476                 0.13      0.00      0.00
  1477                 0.35      0.00      0.00
  1478                 0.04      0.00      0.00
  1479                 0.27      0.00      0.00
  1480                 0.06      0.00      0.00
  1481                 0.08      0.00      0.00
  1482                 4.62      0.00      0.00
  1483                33.19      0.00      0.00
  1484               -28.57      0.00      0.00
  1485                32.61      0.00      0.00
  1486                 0.57      0.00      0.00
  1487                14.42      0.00      0.00
  1488                18.19      0.00      0.00
  1489                14.42      0.00      0.00
  1490                28.06      0.00      0.00
  1491               -13.70      0.00      0.00
  1492                27.98      0.00      0.00
  1493                27.91      0.00      0.00
  1494                 0.00      0.00      0.00
  1495                27.85      0.00      0.00
  1496                14.04      0.00      0.00
  1497                14.01      0.00      0.00
  1498                29.88      0.00      0.00
  1499               -15.91      0.00      0.00
  1500                 0.19      0.00      0.00
  1501                29.59      0.00      0.00
  1502                 0.04      0.00      0.00
  1503                 0.05      0.00      0.00
  1504                 0.04      0.00      0.00
  1505                29.51      0.00      0.00
  1506                16.01      0.00      0.00
  1507                13.46      0.00      0.00
  1508                15.95      0.00      0.00
  1509                 0.01      0.00      0.00
  1510                13.41      0.00      0.00
  1511                13.16      0.00      0.00
  1512                 0.18      0.00      0.00
  1513                 0.65      0.00      0.00
  1514                12.48      0.00      0.00
  1515                 0.03      0.00      0.00
  1516                 0.52      0.00      0.00
  1519                37.19      0.00      0.00
  1520               -36.74      0.00      0.00
  1521                26.52      0.00      0.00
  1522                10.59      0.00      0.00
  1523                 0.04      0.00      0.00
  1524                26.41      0.00      0.00
  1525                36.91      0.00      0.00
  1526                33.92      0.00      0.00
  1527                 2.97      0.00      0.00
  1528                -2.91      0.00      0.00
  1529                18.15      0.00      0.00
  1530                18.08      0.00      0.00
  1531               -10.48      0.00      0.00
  1532               -10.48      0.00      0.00
  1533                48.90      0.00      0.00
  1534               -59.38      0.00      0.00
  1535                29.32      0.00      0.00
  1536                19.54      0.00      0.00
  1537                 2.92      0.00      0.00
  1538                26.37      0.00      0.00
  1539                -2.92      0.00      0.00
  1540                29.24      0.00      0.00
  1541                25.57      0.00      0.00
  1542                 3.62      0.00      0.00
  1543                25.57      0.00      0.00
  1544                29.13      0.00      0.00
  1545                 0.20      0.00      0.00
  1546                28.91      0.00      0.00
  1547                 0.04      0.00      0.00
  1548                 0.11      0.00      0.00
  1549                 0.04      0.00      0.00
  1550                 0.06      0.00      0.00
  1551                28.85      0.00      0.00
  1552                48.26      0.00      0.00
  1553                33.75      0.00      0.00
  1554                14.42      0.00      0.00
  1555               -25.66      0.00      0.00
  1556                27.29      0.00      0.00
  1557               -12.97      0.00      0.00
  1558                12.42      0.00      0.00
  1559                14.88      0.00      0.00
  1560                51.51      0.00      0.00
  1561               -39.09      0.00      0.00
  1562                33.16      0.00      0.00
  1563                18.32      0.00      0.00
  1564                20.15      0.00      0.00
  1565                38.40      0.00      0.00
  1566                22.80      0.00      0.00
  1567                15.57      0.00      0.00
  1568                22.91      0.00      0.00
  1569               -23.54      0.00      0.00
  1570                -6.49      0.00      0.00
  1571                21.32      0.00      0.00
  1572                -6.68      0.00      0.00
  1573                 0.14      0.00      0.00
  1574                21.25      0.00      0.00
  1575                21.16      0.00      0.00
  1576                22.72      0.00      0.00
  1577                -1.67      0.00      0.00
  1578                18.80      0.00      0.00
  1579                 3.86      0.00      0.00
  1580                -0.00      0.00      0.00
  1581                18.80      0.00      0.00
  1582                 0.00      0.00      0.00
  1583                18.77      0.00      0.00
  1585                22.59      0.00      0.00
[...]
  1414                 0.31      0.00      0.00
  1415                 1.34      0.00      0.00
  1416                 1.28      0.00      0.00
  1417                 0.76      0.00      0.00
  1418                 0.53      0.00      0.00
  1419                 0.72      0.00      0.00
  1420                 1.25      0.00      0.00
  1421                 1.19      0.00      0.00
  1422                 0.02      0.00      0.00
  1423                 0.00      0.00      0.00
  1424                 0.00      0.00      0.00
  1427                 0.75      0.00      0.00
  1428                 0.05      0.00      0.00
  1429                 0.65      0.00      0.00
  1430                 0.35      0.00      0.00
  1431                 0.28      0.00      0.00
  1432                 0.11      0.00      0.00
  1433                 0.16      0.00      0.00
  1434                 0.07      0.00      0.00
  1435                 0.18      0.00      0.00
  1436                 0.06      0.00      0.00
  1437                -0.01      0.00      0.00
  1438                 0.05      0.00      0.00
  1439                 0.14      0.00      0.00
  1440                 0.02      0.00      0.00
  1441                -0.00      0.00      0.00
  1444                 0.00      0.00      0.00
  1445                -0.00      0.00      0.00
  1448                 0.00      0.00      0.00
  1449                -0.00      0.00      0.00
  1450                 0.00      0.00      0.00
  1453                -0.10      0.00      0.00
  1454                 0.00      0.00      0.00
  1455                -0.18      0.00      0.00
  1456                 0.00      0.00      0.00
  1457                 0.00      0.00      0.00
  1458                -0.18      0.00      0.00
  1459                 0.00      0.00      0.00
  1460                -0.18      0.00      0.00
  1461                 0.06      0.00      0.00
  1462                -0.24      0.00      0.00
  1463                 0.00      0.00      0.00
  1464                 0.02      0.00      0.00
  1465                -0.26      0.00      0.00
  1466                -0.09      0.00      0.00
  1467                 0.17      0.00      0.00
  1468                -0.46      0.00      0.00
  1470                -0.46      0.00      0.00
  1471                 0.10      0.00      0.00
  1472                -0.60      0.00      0.00
  1473                 0.17      0.00      0.00
  1474                -0.81      0.00      0.00
  1475                 0.00      0.00      0.00
  1476                 0.10      0.00      0.00
  1477                 0.28      0.00      0.00
  1478                 0.03      0.00      0.00
  1479                 0.22      0.00      0.00
  1480                 0.05      0.00      0.00
  1481                 0.07      0.00      0.00
  1482              6768.69      0.12      0.00
  1483              6025.13      0.25      0.00
  1484               743.56      0.01      0.00
  1485              -740.55      0.03      0.00
  1486              6765.68      0.48      0.01
  1487              -463.83      0.02      0.00
  1488              -276.72      0.02      0.00
  1489              -463.83      0.02      0.00
  1490               -22.07      0.00      0.00
  1491              -441.79      0.02      0.00
  1492               -22.14      0.00      0.00
  1493               -22.19      0.00      0.00
  1494                 0.00      0.00      0.00
  1495               -22.23      0.00      0.00
  1496              -464.11      0.02      0.00
  1497              -464.13      0.02      0.00
  1498              -193.60      0.01      0.00
  1499              -270.56      0.01      0.00
  1500                 0.15      0.00      0.00
  1501              -193.81      0.01      0.00
  1502                 0.03      0.00      0.00
  1503                 0.04      0.00      0.00
  1504                 0.03      0.00      0.00
  1505              -193.87      0.01      0.00
  1506               270.64      0.01      0.00
  1507              -464.54      0.02      0.00
  1508               270.59      0.01      0.00
  1509                 0.01      0.00      0.00
  1510              -464.58      0.02      0.00
  1511              -325.85      0.01      0.00
  1512              -138.78      0.01      0.00
  1513               -49.12      0.00      0.00
  1514              -276.75      0.01      0.00
  1515                 0.02      0.00      0.00
  1516                 0.39      0.00      0.00
  1519                 0.18      0.00      0.00
  1520                 0.15      0.00      0.00
  1521                 0.07      0.00      0.00
  1522                 0.05      0.00      0.00
  1523                 0.03      0.00      0.00
  1524                -0.02      0.00      0.00
  1525                -0.03      0.00      0.00
  1526                -0.05      0.00      0.00
  1527                -0.00      0.00      0.00
  1528                 0.04      0.00      0.00
  1529              -276.75      0.02      0.00
  1530              -276.81      0.02      0.00
  1531               466.75      0.01      0.00
  1532               466.75      0.01      0.00
  1533                48.12      0.00      0.00
  1534               418.63      0.01      0.00
  1535                18.43      0.00      0.00
  1536                29.67      0.00      0.00
  1537                 6.14      0.00      0.00
  1538                12.27      0.00      0.00
  1539                -6.14      0.00      0.00
  1540                18.37      0.00      0.00
  1541                 6.11      0.00      0.00
  1542                12.22      0.00      0.00
  1543                 6.11      0.00      0.00
  1544                18.29      0.00      0.00
  1545                 0.15      0.00      0.00
  1546                18.12      0.00      0.00
  1547                 0.03      0.00      0.00
  1548                 0.08      0.00      0.00
  1549                 0.03      0.00      0.00
  1550                 0.04      0.00      0.00
  1551                18.08      0.00      0.00
  1552                47.65      0.00      0.00
  1553              -121.94      0.00      0.00
  1554               169.53      0.01      0.00
  1555               296.67      0.01      0.00
  1556                37.15      0.00      0.00
  1557               132.31      0.01      0.00
  1558                55.79      0.00      0.00
  1559               -18.65      0.00      0.00
  1560               -73.04      0.01      0.00
  1561               128.83      0.01      0.00
  1562              -101.65      0.01      0.00
  1563                28.59      0.00      0.00
  1564                30.63      0.00      0.00
  1565                59.17      0.00      0.00
  1566                65.55      0.00      0.00
  1567                -6.40      0.00      0.00
  1568               -73.28      0.01      0.00
  1569               122.42      0.01      0.00
  1570                25.47      0.00      0.00
  1571               -44.15      0.00      0.00
  1572               100.30      0.01      0.00
  1573               -74.87      0.01      0.00
  1574               -44.20      0.00      0.00
  1575               -44.27      0.00      0.00
  1576               -16.02      0.00      0.00
  1577               -28.33      0.00      0.00
  1578                -4.01      0.00      0.00
  1579               -12.05      0.00      0.00
  1580                 0.00      0.00      0.00
  1581                -4.01      0.00      0.00
  1582                 0.00      0.00      0.00
  1583                -4.03      0.00      0.00
  1585               -16.11      0.00      0.00
  1586               -44.48      0.00      0.00
  1587               296.67      0.01      0.00
  1588              -176.46      0.01      0.00
  1589                 0.01      0.00      0.00
  1590              -176.47      0.01      0.00
  1591              -176.68      0.01      0.00
  1592                 0.21      0.00      0.00
  1593              -251.58      0.01      0.00
  1594                 0.06      0.00      0.00
  1595                 0.13      0.00      0.00
  1596                 0.06      0.00      0.00
  1597                 0.02      0.00      0.00
  1598                 0.12      0.00      0.00
  1599                 0.02      0.00      0.00
  1600                 0.06      0.00      0.00
  1601                 0.00      0.00      0.00
  1602                 0.05      0.00      0.00
  1603                 0.02      0.00      0.00
  1604                 0.01      0.00      0.00
  1605                -0.01      0.00      0.00
  1606                -0.00      0.00      0.00
  1607              -296.06      0.01      0.00
  1608                 0.61      0.00      0.00
  1609                 0.23      0.00      0.00
  1610                 0.35      0.00      0.00
  1611                 0.15      0.00      0.00
  1612                 0.08      0.00      0.00
  1613                -0.03      0.00      0.00
  1614                 0.14      0.00      0.00
  1615                 0.24      0.00      0.00
  1616                -0.07      0.00      0.00
  1617                 0.30      0.00      0.00
  1618                 0.02      0.00      0.00
  1619                 0.16      0.00      0.00
  1620                 0.13      0.00      0.00
  1621                 0.01      0.00      0.00
  1622                 0.08      0.00      0.00
  1623                 0.00      0.00      0.00
  1624                 0.12      0.00      0.00
  1625                 0.14      0.00      0.00
  1626                 0.03      0.00      0.00
  1627                 0.11      0.00      0.00
  1628                 0.04      0.00      0.00
  1629                 0.03      0.00      0.00
  1630                 0.00      0.00      0.00
  1631                 0.00      0.00      0.00
  1632                 0.03      0.00      0.00
  1633                 0.03      0.00      0.00
  1634                 0.02      0.00      0.00
  1635                 0.00      0.00      0.00
  1636                 0.02      0.00      0.00
  1637                 0.00      0.00      0.00
  1638                 2.56      0.00      0.00
  1644                -0.00      0.00      0.00
  1645                -0.00      0.00      0.00
  1646                 0.00      0.00      0.00
  1647                -0.00      0.00      0.00
  1653                -0.00      0.00      0.00
  1654                -0.00      0.00      0.00
  1655                -0.00      0.00      0.00
  1656                -0.00      0.00      0.00
  1657                -0.00      0.00      0.00
  1663                -0.00      0.00      0.00
  1664                -0.00      0.00      0.00
  1665                -0.00      0.00      0.00
  1666                -0.00      0.00      0.00
  1667                -0.00      0.00      0.00
  1668                -0.00      0.00      0.00
  1669                -0.00      0.00      0.00
  1670                -0.00      0.00      0.00
  1673                -0.00      0.00      0.00
  1674                -0.00      0.00      0.00
  1675                 0.00      0.00      0.00
  1676                -0.00      0.00      0.00
  1677                 2.56      0.00      0.00
  1678                -0.02      0.00      0.00
  1679                 0.02      0.00      0.00
  1680                -0.02      0.00      0.00
  1681                 0.02      0.00      0.00
  1682                -0.04      0.00      0.00
  1683                 0.00      0.00      0.00
  1685                 0.00      0.00      0.00
  1686                 0.02      0.00      0.00
  1687                 0.00      0.00      0.00
  1688                 0.02      0.00      0.00
  1694                 0.00      0.00      0.00
  1695                 0.02      0.00      0.00
  1696                 0.00      0.00      0.00
  1699                -0.00      0.00      0.00
  1700                -0.00      0.00      0.00
  1701                -0.00      0.00      0.00
  1702                 0.06      0.00      0.00
  1703                -0.13      0.00      0.00
  1704                 0.06      0.00      0.00
  1705                 0.06      0.00      0.00
  1706                 0.00      0.00      0.00
  1707                 0.06      0.00      0.00
  1710                 0.00      0.00      0.00
  1711                 0.00      0.00      0.00
  1714                 0.06      0.00      0.00
  1715                 0.06      0.00      0.00
  1716                 0.06      0.00      0.00
  1717                 0.00      0.00      0.00
  1718                 0.01      0.00      0.00
  1719                 0.00      0.00      0.00
  1722                 0.00      0.00      0.00
  1723                -0.00      0.00      0.00
  1724                -0.00      0.00      0.00
  1725                 0.00      0.00      0.00
  1726                 0.01      0.00      0.00
  1727                 0.01      0.00      0.00
  1728                -0.21      0.00      0.00
  1729                -0.28      0.00      0.00
  1730                -0.33      0.00      0.00
  1731                -0.36      0.00      0.00
  1732                -0.38      0.00      0.00
  1733                -0.38      0.00      0.00
  1734                 0.00      0.00      0.00
  1737                -0.38      0.00      0.00
  1738                -0.38      0.00      0.00
  1739                -0.38      0.00      0.00
  1740                -0.38      0.00      0.00
  1741                 0.00      0.00      0.00
  1742                 0.00      0.00      0.00
  1743                 0.00      0.00      0.00
  1746            222026.58      4.03      0.41
  1747                 0.00      0.00      0.00
  1750            222026.58     36.28    106.22
  1751            222026.58      4.03      0.41
  1752            222026.56      4.03      0.22
  1753            222026.56      3.93      0.33
  1754                 0.00      0.00      0.00
  1755            222026.55      3.93      0.33
  1756            222026.55      3.93      0.33
  1757                 0.00      0.00      0.00
  1758            222026.55      3.93      0.33
  1759            222026.53      3.93      0.33
  1760            222026.53      3.93      0.33
  1761                 0.00      0.00      0.00
  1762            222026.53      3.93      0.33
  1763            222026.53      3.93      0.33
  1764            222026.53      3.93      0.33
  1765            222026.53      3.93      0.33
  1766                 0.00      0.00      0.00
  1767            222026.53      3.93      0.33
  1768            222026.53      3.93      0.33
  1769            222026.53      3.93      0.33
  1770            222026.53      3.93      0.33
  1771            222026.53      3.93      0.33
  1772            222026.52      3.93      0.33
  1773            222026.52      3.93      0.59
  1774            222026.52      3.93      0.59
  1775                 0.00      0.00      0.00
  1776            222026.52      3.93      0.59
  1777            222026.50      3.93      0.59
  1778            222026.50      3.93      0.59
  1779            222026.50      3.93      0.59
  1780            222026.50      3.93      0.59
  1781            222026.50     15.70      9.53
  1782                 0.00      0.00      0.00
  1783            222026.48     15.70     22.01
  1784            222026.48     36.28     53.76
  1785            222026.48     15.70     22.01
  1786                 0.19      0.00      0.00
  1789                 0.19      0.00      0.00
  v1E             222026.30      0.09      0.03
  1793                -0.00      0.00      0.00
  1795                 0.00      0.00      0.00
  1796                -0.00      0.00      0.00
  1799                 0.19      0.00      0.00
  1800                 0.19      0.00      0.00
  1801                 0.07      0.00      0.00
  1802                 0.04      0.00      0.00
  1803                 0.05      0.00      0.00
  1804                -0.00      0.00      0.00
  1805                 0.00      0.00      0.00
  1806                -0.00      0.00      0.00
  1807                -0.00      0.00      0.00
  1810                 0.00      0.00      0.00
  1813                -0.00      0.00      0.00
  1814                -0.00      0.00      0.00
  1817                -0.00      0.00      0.00
  1819                -0.00      0.00      0.00
  1820                 0.00      0.00      0.00
  1822                 0.00      0.00      0.00
  1823                -0.00      0.00      0.00
  1824                 0.00      0.00      0.00
  1825                -0.00      0.00      0.00
  1826                -0.00      0.00      0.00
  1827                -0.00      0.00      0.00
  1828                 0.02      0.00      0.00
  1829                -0.04      0.00      0.00
  1830                 0.00      0.00      0.00
  1831                 0.00      0.00      0.00
  1832                -0.08      0.00      0.00
  1833                -0.03      0.00      0.00
  1835                -0.03      0.00      0.00
  1836                -0.05      0.00      0.00
  1837                -0.03      0.00      0.00
  1839                -0.03      0.00      0.00
  1842                -0.00      0.00      0.00
  1844                 0.00      0.00      0.00
  1845                 2.56      0.00      0.00
  1847                 2.56      0.00      0.00
  1848                 2.56      0.00      0.00
  1849                 2.56      0.00      0.00
  1850                20.55      0.00      0.00
  1865            222026.30      0.09      0.02
  1867                -0.03      0.00      0.00
  1878               -20.59      0.00      0.00
  1879               -52.44      0.00      0.00
  1885                 2.56      0.00      0.00
  1897            222026.30     36.28    476.94
  1898            222026.30     36.28    476.94
  1900                51.39      0.00      0.00
  1901                51.39      0.00      0.00
  1911                 2.56      0.00      0.00
  1913                 2.56      0.00      0.00
  1914                 2.56      0.00      0.00
  1932                 9.52      0.00      0.00
  1933                 9.52      0.00      0.00
  1935                -9.52      0.00      0.00
  1936                -9.52      0.00      0.00
  1945              6765.63      0.00      0.00
  1946                 0.39      0.00      0.00
  1951                 0.00      0.00      0.00
  1953                -0.00      0.00      0.00
  1955                -0.00      0.00      0.00
  1956                 0.00      0.00      0.00
  1961                 0.00      0.00      0.00
  1962                 0.00      0.00      0.00
  1964                -0.00      0.00      0.00
  1965                -0.00      0.00      0.00
  1972                 0.05      0.00      0.00
  1973                 0.05      0.00      0.00
  1978           -222029.59      4.03      0.41
  1979               -11.32      0.00      0.00
  1993            222018.27      0.09      0.03
  1994            222018.27      0.09      0.06
  2005                -0.00      0.00      0.00
  2010                -0.00      0.00      0.00
  2013                 0.00      0.00      0.00
  2014                -0.00      0.00      0.00
  2017                 0.00      0.00      0.00
  2020                -0.00      0.00      0.00
  2021                -0.00      0.00      0.00
  dummy1               0.19      0.08      0.09
  1A                   0.00      0.00      0.00  Pump
  2A                   0.00      0.00      0.00  Pump
  3A                   0.00      0.00      0.00  Pump
  4B                  51.39      0.00    -29.00  Pump
  5C                   0.00      0.00      0.00  Pump
  6D                  12.64      0.00    -54.18  Pump
  7F                   0.00      0.00      0.00  Pump
  v1708                0.06      0.00      0.00  PRV
   