  Page 1                                    Sun Apr  1 17:08:39 2018

  ******************************************************************
  *                           E P A N E T                          *
  *                   Hydraulic and Water Quality                  *
  *                   Analysis for Pipe Networks                   *
  *                         Version 2.00.12                        *
  ******************************************************************
  
   
      Input Data File ................... ../Data/final_input.inp
      Number of Junctions................ 7
      Number of Reservoirs............... 1
      Number of Tanks ................... 1
      Number of Pipes ................... 9
      Number of Pumps ................... 1
      Number of Valves .................. 0
      Headloss Formula .................. Hazen-Williams
      Hydraulic Timestep ................ 15.00 min
      Hydraulic Accuracy ................ 0.001000
      Status Check Frequency ............ 2
      Maximum Trials Checked ............ 10
      Damping Limit Threshold ........... 0.000000
      Maximum Trials .................... 40
      Quality Analysis .................. None
      Specific Gravity .................. 1.00
      Relative Kinematic Viscosity ...... 1.00
      Relative Chemical Diffusivity ..... 1.00
      Demand Multiplier ................. 1.00
      Total Duration .................... 1440.00 min
      Reporting Criteria:
         All Nodes
         All Links
   
   
  Hydraulic Status:
  -----------------------------------------------------------------------
     0:00:00: Balanced after 5 trials
     0:00:00: Reservoir 1 is emptying
     0:00:00: Tank 8 is filling at 4.00 ft
   
  WARNING: Pump 8 open but exceeds maximum flow at 0:00:00 hrs.
  
     0:15:00: Balanced after 6 trials
     0:15:00: Tank 8 is emptying at 5.13 ft
   
  WARNING: Pump 8 open but exceeds maximum flow at 0:15:00 hrs.
  
     0:30:00: Balanced after 2 trials
   
  WARNING: Pump 8 open but exceeds maximum flow at 0:30:00 hrs.
  
     0:45:00: Balanced after 2 trials
   
  WARNING: Pump 8 open but exceeds maximum flow at 0:45:00 hrs.
  
     1:00:00: Balanced after 3 trials
   
  WARNING: Pump 8 open but exceeds maximum flow at 1:00:00 hrs.
  
     1:11:30: Balanced after 6 trials
     1:11:30: Tank 8 is closed at -0.00 ft
     1:11:30: Pipe 9 changed from open to temporarily closed
   
  WARNING: Negative pressures at 1:11:30 hrs.
  WARNING: Pump 8 open but exceeds maximum flow at 1:11:30 hrs.
  
     1:15:00: Balanced after 1 trials
   
  WARNING: Negative pressures at 1:15:00 hrs.
  WARNING: Pump 8 open but exceeds maximum flow at 1:15:00 hrs.
  
     1:30:00: Balanced after 1 trials
   
  WARNING: Negative pressures at 1:30:00 hrs.
  WARNING: Pump 8 open but exceeds maximum flow at 1:30:00 hrs.
  
     1:45:00: Balanced after 1 trials
   
  WARNING: Negative pressures at 1:45:00 hrs.
  WARNING: Pump 8 open but exceeds maximum flow at 1:45:00 hrs.
  
     2:00:00: Balanced after 3 trials
   
  WARNING: Negative pressures at 2:00:00 hrs.
  WARNING: Pump 8 open but exceeds maximum flow at 2:00:00 hrs.
  
     2:15:00: Balanced after 1 trials
   
  WARNING: Negative pressures at 2:15:00 hrs.
  WARNING: Pump 8 open but exceeds maximum flow at 2:15:00 hrs.
  
     2:30:00: Balanced after 1 trials
   
  WARNING: Negative pressures at 2:30:00 hrs.
  WARNING: Pump 8 open but exceeds maximum flow at 2:30:00 hrs.
  
     2:45:00: Balanced after 1 trials
   
  WARNING: Negative pressures at 2:45:00 hrs.
  WARNING: Pump 8 open but exceeds maximum flow at 2:45:00 hrs.
  
     3:00:00: Balanced after 3 trials
   
  WARNING: Negative pressures at 3:00:00 hrs.
  WARNING: Pump 8 open but exceeds maximum flow at 3:00:00 hrs.
  
     3:15:00: Balanced after 1 trials
   
  WARNING: Negative pressures at 3:15:00 hrs.
  WARNING: Pump 8 open but exceeds maximum flow at 3:15:00 hrs.
  
     3:30:00: Balanced after 1 trials
   
  WARNING: Negative pressures at 3:30:00 hrs.
  WARNING: Pump 8 open but exceeds maximum flow at 3:30:00 hrs.
  
     3:45:00: Balanced after 1 trials
   
  WARNING: Negative pressures at 3:45:00 hrs.
  WARNING: Pump 8 open but exceeds maximum flow at 3:45:00 hrs.
  
     4:00:00: Balanced after 3 trials
   
  WARNING: Negative pressures at 4:00:00 hrs.
  WARNING: Pump 8 open but exceeds maximum flow at 4:00:00 hrs.
  
     4:15:00: Balanced after 1 trials
   
  WARNING: Negative pressures at 4:15:00 hrs.
  WARNING: Pump 8 open but exceeds maximum flow at 4:15:00 hrs.
  
     4:30:00: Balanced after 1 trials
   
  WARNING: Negative pressures at 4:30:00 hrs.
  WARNING: Pump 8 open but exceeds maximum flow at 4:30:00 hrs.
  
     4:45:00: Balanced after 1 trials
   
  WARNING: Negative pressures at 4:45:00 hrs.
  WARNING: Pump 8 open but exceeds maximum flow at 4:45:00 hrs.
  
     5:00:00: Balanced after 3 trials
   
  WARNING: Negative pressures at 5:00:00 hrs.
  WARNING: Pump 8 open but exceeds maximum flow at 5:00:00 hrs.
  
     5:15:00: Balanced after 1 trials
   
  WARNING: Negative pressures at 5:15:00 hrs.
  WARNING: Pump 8 open but exceeds maximum flow at 5:15:00 hrs.
  
     5:30:00: Balanced after 1 trials
   
  WARNING: Negative pressures at 5:30:00 hrs.
  WARNING: Pump 8 open but exceeds maximum flow at 5:30:00 hrs.
  
     5:45:00: Balanced after 1 trials
   
  WARNING: Negative pressures at 5:45:00 hrs.
  WARNING: Pump 8 open but exceeds maximum flow at 5:45:00 hrs.
  
     6:00:00: Balanced after 3 trials
   
  WARNING: Negative pressures at 6:00:00 hrs.
  WARNING: Pump 8 open but exceeds maximum flow at 6:00:00 hrs.
  
     6:15:00: Balanced after 1 trials
   
  WARNING: Negative pressures at 6:15:00 hrs.
  WARNING: Pump 8 open but exceeds maximum flow at 6:15:00 hrs.
  
     6:30:00: Balanced after 1 trials
   
  WARNING: Negative pressures at 6:30:00 hrs.
  WARNING: Pump 8 open but exceeds maximum flow at 6:30:00 hrs.
  
     6:45:00: Balanced after 1 trials
   
  WARNING: Negative pressures at 6:45:00 hrs.
  WARNING: Pump 8 open but exceeds maximum flow at 6:45:00 hrs.
  
     7:00:00: Balanced after 3 trials
   
  WARNING: Negative pressures at 7:00:00 hrs.
  WARNING: Pump 8 open but exceeds maximum flow at 7:00:00 hrs.
  
     7:15:00: Balanced after 1 trials
   
  WARNING: Negative pressures at 7:15:00 hrs.
  WARNING: Pump 8 open but exceeds maximum flow at 7:15:00 hrs.
  
     7:30:00: Balanced after 1 trials
   
  WARNING: Negative pressures at 7:30:00 hrs.
  WARNING: Pump 8 open but exceeds maximum flow at 7:30:00 hrs.
  
     7:45:00: Balanced after 3 trials
   
  WARNING: Negative pressures at 7:45:00 hrs.
  WARNING: Pump 8 open but exceeds maximum flow at 7:45:00 hrs.
  
     8:00:00: Balanced after 3 trials
   
  WARNING: Negative pressures at 8:00:00 hrs.
  WARNING: Pump 8 open but exceeds maximum flow at 8:00:00 hrs.
  
     8:15:00: Balanced after 1 trials
   
  WARNING: Negative pressures at 8:15:00 hrs.
  WARNING: Pump 8 open but exceeds maximum flow at 8:15:00 hrs.
  
     8:30:00: Balanced after 1 trials
   
  WARNING: Negative pressures at 8:30:00 hrs.
  WARNING: Pump 8 open but exceeds maximum flow at 8:30:00 hrs.
  
     8:45:00: Balanced after 1 trials
   
  WARNING: Negative pressures at 8:45:00 hrs.
  WARNING: Pump 8 open but exceeds maximum flow at 8:45:00 hrs.
  
     9:00:00: Balanced after 4 trials
   
  WARNING: Negative pressures at 9:00:00 hrs.
  WARNING: Pump 8 open but exceeds maximum flow at 9:00:00 hrs.
  
     9:15:00: Balanced after 1 trials
   
  WARNING: Negative pressures at 9:15:00 hrs.
  WARNING: Pump 8 open but exceeds maximum flow at 9:15:00 hrs.
  
     9:30:00: Balanced after 1 trials
   
  WARNING: Negative pressures at 9:30:00 hrs.
  WARNING: Pump 8 open but exceeds maximum flow at 9:30:00 hrs.
  
     9:45:00: Balanced after 1 trials
   
  WARNING: Negative pressures at 9:45:00 hrs.
  WARNING: Pump 8 open but exceeds maximum flow at 9:45:00 hrs.
  
    10:00:00: Balanced after 3 trials
   
  WARNING: Negative pressures at 10:00:00 hrs.
  WARNING: Pump 8 open but exceeds maximum flow at 10:00:00 hrs.
  
    10:15:00: Balanced after 1 trials
   
  WARNING: Negative pressures at 10:15:00 hrs.
  WARNING: Pump 8 open but exceeds maximum flow at 10:15:00 hrs.
  
    10:30:00: Balanced after 1 trials
   
  WARNING: Negative pressures at 10:30:00 hrs.
  WARNING: Pump 8 open but exceeds maximum flow at 10:30:00 hrs.
  
    10:45:00: Balanced after 1 trials
   
  WARNING: Negative pressures at 10:45:00 hrs.
  WARNING: Pump 8 open but exceeds maximum flow at 10:45:00 hrs.
  
    11:00:00: Balanced after 3 trials
   
  WARNING: Negative pressures at 11:00:00 hrs.
  WARNING: Pump 8 open but exceeds maximum flow at 11:00:00 hrs.
  
    11:15:00: Balanced after 1 trials
   
  WARNING: Negative pressures at 11:15:00 hrs.
  WARNING: Pump 8 open but exceeds maximum flow at 11:15:00 hrs.
  
    11:30:00: Balanced after 1 trials
   
  WARNING: Negative pressures at 11:30:00 hrs.
  WARNING: Pump 8 open but exceeds maximum flow at 11:30:00 hrs.
  
    11:45:00: Balanced after 1 trials
   
  WARNING: Negative pressures at 11:45:00 hrs.
  WARNING: Pump 8 open but exceeds maximum flow at 11:45:00 hrs.
  
    12:00:00: Balanced after 3 trials
   
  WARNING: Negative pressures at 12:00:00 hrs.
  WARNING: Pump 8 open but exceeds maximum flow at 12:00:00 hrs.
  
    12:15:00: Balanced after 1 trials
   
  WARNING: Negative pressures at 12:15:00 hrs.
  WARNING: Pump 8 open but exceeds maximum flow at 12:15:00 hrs.
  
    12:30:00: Balanced after 1 trials
   
  WARNING: Negative pressures at 12:30:00 hrs.
  WARNING: Pump 8 open but exceeds maximum flow at 12:30:00 hrs.
  
    12:45:00: Balanced after 1 trials
   
  WARNING: Negative pressures at 12:45:00 hrs.
  WARNING: Pump 8 open but exceeds maximum flow at 12:45:00 hrs.
  
    13:00:00: Balanced after 4 trials
   
  WARNING: Negative pressures at 13:00:00 hrs.
  WARNING: Pump 8 open but exceeds maximum flow at 13:00:00 hrs.
  
    13:15:00: Balanced after 1 trials
   
  WARNING: Negative pressures at 13:15:00 hrs.
  WARNING: Pump 8 open but exceeds maximum flow at 13:15:00 hrs.
  
    13:30:00: Balanced after 1 trials
   
  WARNING: Negative pressures at 13:30:00 hrs.
  WARNING: Pump 8 open but exceeds maximum flow at 13:30:00 hrs.
  
    13:45:00: Balanced after 1 trials
   
  WARNING: Negative pressures at 13:45:00 hrs.
  WARNING: Pump 8 open but exceeds maximum flow at 13:45:00 hrs.
  
    14:00:00: Balanced after 3 trials
   
  WARNING: Negative pressures at 14:00:00 hrs.
  WARNING: Pump 8 open but exceeds maximum flow at 14:00:00 hrs.
  
    14:15:00: Balanced after 1 trials
   
  WARNING: Negative pressures at 14:15:00 hrs.
  WARNING: Pump 8 open but exceeds maximum flow at 14:15:00 hrs.
  
    14:30:00: Balanced after 1 trials
   
  WARNING: Negative pressures at 14:30:00 hrs.
  WARNING: Pump 8 open but exceeds maximum flow at 14:30:00 hrs.
  
    14:45:00: Balanced after 1 trials
   
  WARNING: Negative pressures at 14:45:00 hrs.
  WARNING: Pump 8 open but exceeds maximum flow at 14:45:00 hrs.
  
    15:00:00: Balanced after 3 trials
   
  WARNING: Negative pressures at 15:00:00 hrs.
  WARNING: Pump 8 open but exceeds maximum flow at 15:00:00 hrs.
  
    15:15:00: Balanced after 1 trials
   
  WARNING: Negative pressures at 15:15:00 hrs.
  WARNING: Pump 8 open but exceeds maximum flow at 15:15:00 hrs.
  
    15:30:00: Balanced after 1 trials
   
  WARNING: Negative pressures at 15:30:00 hrs.
  WARNING: Pump 8 open but exceeds maximum flow at 15:30:00 hrs.
  
    15:45:00: Balanced after 1 trials
   
  WARNING: Negative pressures at 15:45:00 hrs.
  WARNING: Pump 8 open but exceeds maximum flow at 15:45:00 hrs.
  
    16:00:00: Balanced after 3 trials
   
  WARNING: Negative pressures at 16:00:00 hrs.
  WARNING: Pump 8 open but exceeds maximum flow at 16:00:00 hrs.
  
    16:15:00: Balanced after 1 trials
   
  WARNING: Negative pressures at 16:15:00 hrs.
  WARNING: Pump 8 open but exceeds maximum flow at 16:15:00 hrs.
  
    16:30:00: Balanced after 1 trials
   
  WARNING: Negative pressures at 16:30:00 hrs.
  WARNING: Pump 8 open but exceeds maximum flow at 16:30:00 hrs.
  
    16:45:00: Balanced after 1 trials
   
  WARNING: Negative pressures at 16:45:00 hrs.
  WARNING: Pump 8 open but exceeds maximum flow at 16:45:00 hrs.
  
    17:00:00: Balanced after 4 trials
   
  WARNING: Negative pressures at 17:00:00 hrs.
  WARNING: Pump 8 open but exceeds maximum flow at 17:00:00 hrs.
  
    17:15:00: Balanced after 1 trials
   
  WARNING: Negative pressures at 17:15:00 hrs.
  WARNING: Pump 8 open but exceeds maximum flow at 17:15:00 hrs.
  
    17:30:00: Balanced after 1 trials
   
  WARNING: Negative pressures at 17:30:00 hrs.
  WARNING: Pump 8 open but exceeds maximum flow at 17:30:00 hrs.
  
    17:45:00: Balanced after 1 trials
   
  WARNING: Negative pressures at 17:45:00 hrs.
  WARNING: Pump 8 open but exceeds maximum flow at 17:45:00 hrs.
  
    18:00:00: Balanced after 3 trials
   
  WARNING: Negative pressures at 18:00:00 hrs.
  WARNING: Pump 8 open but exceeds maximum flow at 18:00:00 hrs.
  
    18:15:00: Balanced after 1 trials
   
  WARNING: Negative pressures at 18:15:00 hrs.
  WARNING: Pump 8 open but exceeds maximum flow at 18:15:00 hrs.
  
    18:30:00: Balanced after 1 trials
   
  WARNING: Negative pressures at 18:30:00 hrs.
  WARNING: Pump 8 open but exceeds maximum flow at 18:30:00 hrs.
  
    18:45:00: Balanced after 1 trials
   
  WARNING: Negative pressures at 18:45:00 hrs.
  WARNING: Pump 8 open but exceeds maximum flow at 18:45:00 hrs.
  
    19:00:00: Balanced after 3 trials
   
  WARNING: Negative pressures at 19:00:00 hrs.
  WARNING: Pump 8 open but exceeds maximum flow at 19:00:00 hrs.
  
    19:15:00: Balanced after 1 trials
   
  WARNING: Negative pressures at 19:15:00 hrs.
  WARNING: Pump 8 open but exceeds maximum flow at 19:15:00 hrs.
  
    19:30:00: Balanced after 1 trials
   
  WARNING: Negative pressures at 19:30:00 hrs.
  WARNING: Pump 8 open but exceeds maximum flow at 19:30:00 hrs.
  
    19:45:00: Balanced after 1 trials
   
  WARNING: Negative pressures at 19:45:00 hrs.
  WARNING: Pump 8 open but exceeds maximum flow at 19:45:00 hrs.
  
    20:00:00: Balanced after 3 trials
   
  WARNING: Negative pressures at 20:00:00 hrs.
  WARNING: Pump 8 open but exceeds maximum flow at 20:00:00 hrs.
  
    20:15:00: Balanced after 1 trials
   
  WARNING: Negative pressures at 20:15:00 hrs.
  WARNING: Pump 8 open but exceeds maximum flow at 20:15:00 hrs.
  
    20:30:00: Balanced after 1 trials
   
  WARNING: Negative pressures at 20:30:00 hrs.
  WARNING: Pump 8 open but exceeds maximum flow at 20:30:00 hrs.
  
    20:45:00: Balanced after 1 trials
   
  WARNING: Negative pressures at 20:45:00 hrs.
  WARNING: Pump 8 open but exceeds maximum flow at 20:45:00 hrs.
  
    21:00:00: Balanced after 4 trials
   
  WARNING: Negative pressures at 21:00:00 hrs.
  WARNING: Pump 8 open but exceeds maximum flow at 21:00:00 hrs.
  
    21:15:00: Balanced after 1 trials
   
  WARNING: Negative pressures at 21:15:00 hrs.
  WARNING: Pump 8 open but exceeds maximum flow at 21:15:00 hrs.
  
    21:30:00: Balanced after 1 trials
   
  WARNING: Negative pressures at 21:30:00 hrs.
  WARNING: Pump 8 open but exceeds maximum flow at 21:30:00 hrs.
  
    21:45:00: Balanced after 1 trials
   
  WARNING: Negative pressures at 21:45:00 hrs.
  WARNING: Pump 8 open but exceeds maximum flow at 21:45:00 hrs.
  
    22:00:00: Balanced after 3 trials
   
  WARNING: Negative pressures at 22:00:00 hrs.
  WARNING: Pump 8 open but exceeds maximum flow at 22:00:00 hrs.
  
    22:15:00: Balanced after 1 trials
   
  WARNING: Negative pressures at 22:15:00 hrs.
  WARNING: Pump 8 open but exceeds maximum flow at 22:15:00 hrs.
  
    22:30:00: Balanced after 1 trials
   
  WARNING: Negative pressures at 22:30:00 hrs.
  WARNING: Pump 8 open but exceeds maximum flow at 22:30:00 hrs.
  
    22:45:00: Balanced after 1 trials
   
  WARNING: Negative pressures at 22:45:00 hrs.
  WARNING: Pump 8 open but exceeds maximum flow at 22:45:00 hrs.
  
    23:00:00: Balanced after 3 trials
   
  WARNING: Negative pressures at 23:00:00 hrs.
  WARNING: Pump 8 open but exceeds maximum flow at 23:00:00 hrs.
  
    23:15:00: Balanced after 1 trials
   
  WARNING: Negative pressures at 23:15:00 hrs.
  WARNING: Pump 8 open but exceeds maximum flow at 23:15:00 hrs.
  
    23:30:00: Balanced after 1 trials
   
  WARNING: Negative pressures at 23:30:00 hrs.
  WARNING: Pump 8 open but exceeds maximum flow at 23:30:00 hrs.
  
    23:45:00: Balanced after 1 trials
   
  WARNING: Negative pressures at 23:45:00 hrs.
  WARNING: Pump 8 open but exceeds maximum flow at 23:45:00 hrs.
  
    24:00:00: Balanced after 3 trials
   
  WARNING: Negative pressures at 24:00:00 hrs.
  WARNING: Pump 8 open but exceeds maximum flow at 24:00:00 hrs.
  
   
  Node Results at 0:00:00 hrs:
  ----------------------------------------------
                     Demand      Head  Pressure
  Node                  gpm        ft       psi
  ----------------------------------------------
  2                    0.00    907.84    393.37
  3                  325.00    849.10     60.27
  4                   75.00    846.07     63.29
  5                  100.00    845.55     67.40
  6                   75.00    845.13     84.55
  7                  100.00    843.78     62.30
  9                   50.00    845.29    149.62
  1                -2320.01   1000.00      0.00  Reservoir
  8                 1595.01    834.00      1.73  Tank
   
   
  Link Results at 0:00:00 hrs:
  ----------------------------------------------
                       Flow  Velocity  Headloss
  Link                  gpm       fps   /1000ft
  ----------------------------------------------
  1                 2320.01      6.58     19.58
  2                  847.54      2.40      3.03
  3                  324.26      0.92      0.51
  4                 1147.47      3.26      5.32
  5                 -547.54      1.55      1.35
  6                  448.28      1.27      0.93
  9                 1595.01      4.52      9.78
  7                 -174.26      0.49      0.16
  10                 224.26      0.64      0.26
  8                 2320.01      0.00     92.16  Pump
   
   
  Node Results at 0:15:00 hrs:
  ----------------------------------------------
                     Demand      Head  Pressure
  Node                  gpm        ft       psi
  ----------------------------------------------
  2                    0.00    886.07    383.93
  3                  325.00    824.04     49.41
  4                   75.00    811.28     48.22
  5                  100.00    802.71     48.84
  6                   75.00    810.88     69.71
  7                  100.00    823.78     53.63
  9                 3442.86    795.19    127.91
  1                -2389.35   1000.00      0.00  Reservoir
  8                -1728.51    835.13      2.22  Tank
   
   
  Link Results at 0:15:00 hrs:
  ----------------------------------------------
                       Flow  Velocity  Headloss
  Link                  gpm       fps   /1000ft
  ----------------------------------------------
  1                 2389.35      6.78     20.68
  2                 1841.06      5.22     12.76
  3                 1484.26      4.21      8.56
  4                  223.29      0.63      0.26
  5                 1851.80      5.25     12.90
  6                  281.80      0.80      0.39
  9                -1728.51      4.90     11.35
  7                 2058.60      5.84     15.69
  10                1384.26      3.93      7.52
  8                 2389.35      0.00    113.93  Pump
   
   
  Node Results at 0:30:00 hrs:
  ----------------------------------------------
                     Demand      Head  Pressure
  Node                  gpm        ft       psi
  ----------------------------------------------
  2                    0.00    885.11    383.52
  3                  325.00    822.93     48.93
  4                   75.00    810.20     47.75
  5                  100.00    801.67     48.38
  6                   75.00    809.81     69.24
  7                  100.00    822.66     53.15
  9                 3436.97    794.16    127.46
  1                -2392.36   1000.00      0.00  Reservoir
  8                -1719.60    833.91      1.69  Tank
   
   
  Link Results at 0:30:00 hrs:
  ----------------------------------------------
                       Flow  Velocity  Headloss
  Link                  gpm       fps   /1000ft
  ----------------------------------------------
  1                 2392.36      6.79     20.73
  2                 1838.58      5.22     12.73
  3                 1481.87      4.20      8.54
  4                  228.79      0.65      0.27
  5                 1848.39      5.24     12.85
  6                  281.71      0.80      0.39
  9                -1719.60      4.88     11.24
  7                 2055.10      5.83     15.64
  10                1381.87      3.92      7.50
  8                 2392.36      0.00    114.89  Pump
   
   
  Node Results at 0:45:00 hrs:
  ----------------------------------------------
                     Demand      Head  Pressure
  Node                  gpm        ft       psi
  ----------------------------------------------
  2                    0.00    884.15    383.10
  3                  325.00    821.83     48.46
  4                   75.00    809.13     47.29
  5                  100.00    800.62     47.93
  6                   75.00    808.74     68.78
  7                  100.00    821.55     52.67
  9                 3431.09    793.15    127.02
  1                -2395.36   1000.00      0.00  Reservoir
  8                -1710.73    832.69      1.16  Tank
   
   
  Link Results at 0:45:00 hrs:
  ----------------------------------------------
                       Flow  Velocity  Headloss
  Link                  gpm       fps   /1000ft
  ----------------------------------------------
  1                 2395.36      6.80     20.77
  2                 1836.11      5.21     12.70
  3                 1479.49      4.20      8.51
  4                  234.25      0.66      0.28
  5                 1844.99      5.23     12.81
  6                  281.62      0.80      0.39
  9                -1710.73      4.85     11.14
  7                 2051.61      5.82     15.59
  10                1379.49      3.91      7.48
  8                 2395.36      0.00    115.85  Pump
   
   
  Node Results at 1:00:00 hrs:
  ----------------------------------------------
                     Demand      Head  Pressure
  Node                  gpm        ft       psi
  ----------------------------------------------
  2                    0.00    869.21    376.63
  3                  845.00    804.64     41.01
  4                  195.00    789.93     38.97
  5                  260.00    780.42     39.18
  6                  195.00    789.68     60.52
  7                  260.00    805.37     45.66
  9                 3396.49    773.61    118.56
  1                -2441.68   1000.00      0.00  Reservoir
  8                -2709.81    831.47      0.64  Tank
   
   
  Link Results at 1:00:00 hrs:
  ----------------------------------------------
                       Flow  Velocity  Headloss
  Link                  gpm       fps   /1000ft
  ----------------------------------------------
  1                 2441.68      6.93     21.52
  2                 1988.08      5.64     14.71
  3                 1571.33      4.46      9.52
  4                 -391.40      1.11      0.73
  5                 2058.41      5.84     15.69
  6                  221.75      0.63      0.25
  9                -2709.81      7.69     26.11
  7                 2085.16      5.92     16.07
  10                1311.33      3.72      6.81
  8                 2441.68      0.00    130.79  Pump
   
   
  Node Results at 1:15:00 hrs:
  ----------------------------------------------
                     Demand      Head  Pressure
  Node                  gpm        ft       psi
  ----------------------------------------------
  2                    0.00    642.72    278.49
  3                  845.00    544.67    -71.64
  4                  195.00    538.71    -69.89
  5                  260.00    536.39    -66.56
  6                  195.00    538.29    -48.41
  7                  260.00    540.61    -69.07
  9                 1304.30    535.36     15.32
  1                -3059.29   1000.00      0.00  Reservoir
  8                    0.00    830.00      0.00  Tank
   
   
  Link Results at 1:15:00 hrs:
  ----------------------------------------------
                       Flow  Velocity  Headloss
  Link                  gpm       fps   /1000ft
  ----------------------------------------------
  1                 3059.29      8.68     32.68
  2                 1221.05      3.46      5.96
  3                  733.15      2.08      2.32
  4                  993.24      2.82      4.07
  5                  733.24      2.08      2.32
  6                  292.90      0.83      0.42
  9                    0.00      0.00      0.00
  7                  831.15      2.36      2.93
  10                 473.15      1.34      1.03
  8                 3059.29      0.00    357.28  Pump
   
   
  Node Results at 1:30:00 hrs:
  ----------------------------------------------
                     Demand      Head  Pressure
  Node                  gpm        ft       psi
  ----------------------------------------------
  2                    0.00    642.72    278.49
  3                  845.00    544.67    -71.64
  4                  195.00    538.71    -69.89
  5                  260.00    536.39    -66.56
  6                  195.00    538.29    -48.41
  7                  260.00    540.61    -69.07
  9                 1304.30    535.36     15.32
  1                -3059.29   1000.00      0.00  Reservoir
  8                    0.00    830.00      0.00  Tank
   
   
  Link Results at 1:30:00 hrs:
  ----------------------------------------------
                       Flow  Velocity  Headloss
  Link                  gpm       fps   /1000ft
  ----------------------------------------------
  1                 3059.29      8.68     32.68
  2                 1221.05      3.46      5.96
  3                  733.15      2.08      2.32
  4                  993.24      2.82      4.07
  5                  733.24      2.08      2.32
  6                  292.90      0.83      0.42
  9                    0.00      0.00      0.00
  7                  831.15      2.36      2.93
  10                 473.15      1.34      1.03
  8                 3059.29      0.00    357.28  Pump
   
   
  Node Results at 1:45:00 hrs:
  ----------------------------------------------
                     Demand      Head  Pressure
  Node                  gpm        ft       psi
  ----------------------------------------------
  2                    0.00    642.72    278.49
  3                  845.00    544.67    -71.64
  4                  195.00    538.71    -69.89
  5                  260.00    536.39    -66.56
  6                  195.00    538.29    -48.41
  7                  260.00    540.61    -69.07
  9                 1304.30    535.36     15.32
  1                -3059.29   1000.00      0.00  Reservoir
  8                    0.00    830.00      0.00  Tank
   
   
  Link Results at 1:45:00 hrs:
  ----------------------------------------------
                       Flow  Velocity  Headloss
  Link                  gpm       fps   /1000ft
  ----------------------------------------------
  1                 3059.29      8.68     32.68
  2                 1221.05      3.46      5.96
  3                  733.15      2.08      2.32
  4                  993.24      2.82      4.07
  5                  733.24      2.08      2.32
  6                  292.90      0.83      0.42
  9                    0.00      0.00      0.00
  7                  831.15      2.36      2.93
  10                 473.15      1.34      1.03
  8                 3059.29      0.00    357.28  Pump
   
   
  Node Results at 2:00:00 hrs:
  ----------------------------------------------
                     Demand      Head  Pressure
  Node                  gpm        ft       psi
  ----------------------------------------------
  2                    0.00    667.45    289.21
  3                  650.00    573.01    -59.36
  4                  150.00    566.19    -57.98
  5                  200.00    563.23    -54.93
  6                  150.00    565.67    -36.54
  7                  200.00    568.62    -56.93
  9                 1648.05    561.45     26.63
  1                -2998.05   1000.00      0.00  Reservoir
  8                    0.00    830.00      0.00  Tank
   
   
  Link Results at 2:00:00 hrs:
  ----------------------------------------------
                       Flow  Velocity  Headloss
  Link                  gpm       fps   /1000ft
  ----------------------------------------------
  1                 2998.05      8.50     31.48
  2                 1312.97      3.72      6.82
  3                  835.70      2.37      2.96
  4                 1035.08      2.94      4.39
  5                  835.08      2.37      2.95
  6                  327.27      0.93      0.52
  9                    0.00      0.00      0.00
  7                 1012.35      2.87      4.22
  10                 635.70      1.80      1.78
  8                 2998.05      0.00    332.55  Pump
   
   
  Node Results at 2:15:00 hrs:
  ----------------------------------------------
                     Demand      Head  Pressure
  Node                  gpm        ft       psi
  ----------------------------------------------
  2                    0.00    667.45    289.21
  3                  650.00    573.01    -59.36
  4                  150.00    566.19    -57.98
  5                  200.00    563.23    -54.93
  6                  150.00    565.67    -36.54
  7                  200.00    568.62    -56.93
  9                 1648.05    561.45     26.63
  1                -2998.05   1000.00      0.00  Reservoir
  8                    0.00    830.00      0.00  Tank
   
   
  Link Results at 2:15:00 hrs:
  ----------------------------------------------
                       Flow  Velocity  Headloss
  Link                  gpm       fps   /1000ft
  ----------------------------------------------
  1                 2998.05      8.50     31.48
  2                 1312.97      3.72      6.82
  3                  835.70      2.37      2.96
  4                 1035.08      2.94      4.39
  5                  835.08      2.37      2.95
  6                  327.27      0.93      0.52
  9                    0.00      0.00      0.00
  7                 1012.35      2.87      4.22
  10                 635.70      1.80      1.78
  8                 2998.05      0.00    332.55  Pump
   
   
  Node Results at 2:30:00 hrs:
  ----------------------------------------------
                     Demand      Head  Pressure
  Node                  gpm        ft       psi
  ----------------------------------------------
  2                    0.00    667.45    289.21
  3                  650.00    573.01    -59.36
  4                  150.00    566.19    -57.98
  5                  200.00    563.23    -54.93
  6                  150.00    565.67    -36.54
  7                  200.00    568.62    -56.93
  9                 1648.05    561.45     26.63
  1                -2998.05   1000.00      0.00  Reservoir
  8                    0.00    830.00      0.00  Tank
   
   
  Link Results at 2:30:00 hrs:
  ----------------------------------------------
                       Flow  Velocity  Headloss
  Link                  gpm       fps   /1000ft
  ----------------------------------------------
  1                 2998.05      8.50     31.48
  2                 1312.97      3.72      6.82
  3                  835.70      2.37      2.96
  4                 1035.08      2.94      4.39
  5                  835.08      2.37      2.95
  6                  327.27      0.93      0.52
  9                    0.00      0.00      0.00
  7                 1012.35      2.87      4.22
  10                 635.70      1.80      1.78
  8                 2998.05      0.00    332.55  Pump
   
   
  Node Results at 2:45:00 hrs:
  ----------------------------------------------
                     Demand      Head  Pressure
  Node                  gpm        ft       psi
  ----------------------------------------------
  2                    0.00    667.45    289.21
  3                  650.00    573.01    -59.36
  4                  150.00    566.19    -57.98
  5                  200.00    563.23    -54.93
  6                  150.00    565.67    -36.54
  7                  200.00    568.62    -56.93
  9                 1648.05    561.45     26.63
  1                -2998.05   1000.00      0.00  Reservoir
  8                    0.00    830.00      0.00  Tank
   
   
  Link Results at 2:45:00 hrs:
  ----------------------------------------------
                       Flow  Velocity  Headloss
  Link                  gpm       fps   /1000ft
  ----------------------------------------------
  1                 2998.05      8.50     31.48
  2                 1312.97      3.72      6.82
  3                  835.70      2.37      2.96
  4                 1035.08      2.94      4.39
  5                  835.08      2.37      2.95
  6                  327.27      0.93      0.52
  9                    0.00      0.00      0.00
  7                 1012.35      2.87      4.22
  10                 635.70      1.80      1.78
  8                 2998.05      0.00    332.55  Pump
   
   
  Node Results at 3:00:00 hrs:
  ----------------------------------------------
                     Demand      Head  Pressure
  Node                  gpm        ft       psi
  ----------------------------------------------
  2                    0.00    650.35    281.80
  3                  780.00    553.42    -67.85
  4                  180.00    547.16    -66.22
  5                  240.00    544.64    -62.99
  6                  180.00    546.71    -44.76
  7                  240.00    549.24    -65.33
  9                 1420.53    543.37     18.79
  1                -3040.53   1000.00      0.00  Reservoir
  8                    0.00    830.00      0.00  Tank
   
   
  Link Results at 3:00:00 hrs:
  ----------------------------------------------
                       Flow  Velocity  Headloss
  Link                  gpm       fps   /1000ft
  ----------------------------------------------
  1                 3040.53      8.63     32.31
  2                 1252.58      3.55      6.25
  3                  768.20      2.18      2.53
  4                 1007.95      2.86      4.18
  5                  767.95      2.18      2.53
  6                  304.38      0.86      0.46
  9                    0.00      0.00      0.00
  7                  892.33      2.53      3.34
  10                 528.20      1.50      1.26
  8                 3040.53      0.00    349.65  Pump
   
   
  Node Results at 3:15:00 hrs:
  ----------------------------------------------
                     Demand      Head  Pressure
  Node                  gpm        ft       psi
  ----------------------------------------------
  2                    0.00    650.35    281.80
  3                  780.00    553.42    -67.85
  4                  180.00    547.16    -66.22
  5                  240.00    544.64    -62.99
  6                  180.00    546.71    -44.76
  7                  240.00    549.24    -65.33
  9                 1420.53    543.37     18.79
  1                -3040.53   1000.00      0.00  Reservoir
  8                    0.00    830.00      0.00  Tank
   
   
  Link Results at 3:15:00 hrs:
  ----------------------------------------------
                       Flow  Velocity  Headloss
  Link                  gpm       fps   /1000ft
  ----------------------------------------------
  1                 3040.53      8.63     32.31
  2                 1252.58      3.55      6.25
  3                  768.20      2.18      2.53
  4                 1007.95      2.86      4.18
  5                  767.95      2.18      2.53
  6                  304.38      0.86      0.46
  9                    0.00      0.00      0.00
  7                  892.33      2.53      3.34
  10                 528.20      1.50      1.26
  8                 3040.53      0.00    349.65  Pump
   
   
  Node Results at 3:30:00 hrs:
  ----------------------------------------------
                     Demand      Head  Pressure
  Node                  gpm        ft       psi
  ----------------------------------------------
  2                    0.00    650.35    281.80
  3                  780.00    553.42    -67.85
  4                  180.00    547.16    -66.22
  5                  240.00    544.64    -62.99
  6                  180.00    546.71    -44.76
  7                  240.00    549.24    -65.33
  9                 1420.53    543.37     18.79
  1                -3040.53   1000.00      0.00  Reservoir
  8                    0.00    830.00      0.00  Tank
   
   
  Link Results at 3:30:00 hrs:
  ----------------------------------------------
                       Flow  Velocity  Headloss
  Link                  gpm       fps   /1000ft
  ----------------------------------------------
  1                 3040.53      8.63     32.31
  2                 1252.58      3.55      6.25
  3                  768.20      2.18      2.53
  4                 1007.95      2.86      4.18
  5                  767.95      2.18      2.53
  6                  304.38      0.86      0.46
  9                    0.00      0.00      0.00
  7                  892.33      2.53      3.34
  10                 528.20      1.50      1.26
  8                 3040.53      0.00    349.65  Pump
   
   
  Node Results at 3:45:00 hrs:
  ----------------------------------------------
                     Demand      Head  Pressure
  Node                  gpm        ft       psi
  ----------------------------------------------
  2                    0.00    650.35    281.80
  3                  780.00    553.42    -67.85
  4                  180.00    547.16    -66.22
  5                  240.00    544.64    -62.99
  6                  180.00    546.71    -44.76
  7                  240.00    549.24    -65.33
  9                 1420.53    543.37     18.79
  1                -3040.53   1000.00      0.00  Reservoir
  8                    0.00    830.00      0.00  Tank
   
   
  Link Results at 3:45:00 hrs:
  ----------------------------------------------
                       Flow  Velocity  Headloss
  Link                  gpm       fps   /1000ft
  ----------------------------------------------
  1                 3040.53      8.63     32.31
  2                 1252.58      3.55      6.25
  3                  768.20      2.18      2.53
  4                 1007.95      2.86      4.18
  5                  767.95      2.18      2.53
  6                  304.38      0.86      0.46
  9                    0.00      0.00      0.00
  7                  892.33      2.53      3.34
  10                 528.20      1.50      1.26
  8                 3040.53      0.00    349.65  Pump
   
   
  Node Results at 4:00:00 hrs:
  ----------------------------------------------
                     Demand      Head  Pressure
  Node                  gpm        ft       psi
  ----------------------------------------------
  2                    0.00    719.71    311.85
  3                  325.00    632.93    -33.40
  4                   75.00    624.74    -32.61
  5                  100.00    620.69    -30.03
  6                   75.00    624.04    -11.25
  7                  100.00    628.09    -31.16
  9                 2189.32    617.36     50.85
  1                -2864.32   1000.00      0.00  Reservoir
  8                    0.00    830.00      0.00  Tank
   
   
  Link Results at 4:00:00 hrs:
  ----------------------------------------------
                       Flow  Velocity  Headloss
  Link                  gpm       fps   /1000ft
  ----------------------------------------------
  1                 2864.32      8.13     28.93
  2                 1448.90      4.11      8.19
  3                  990.97      2.81      4.05
  4                 1090.42      3.09      4.84
  5                  990.42      2.81      4.05
  6                  382.93      1.09      0.70
  9                    0.00      0.00      0.00
  7                 1298.35      3.68      6.68
  10                 890.97      2.53      3.33
  8                 2864.32      0.00    280.29  Pump
   
   
  Node Results at 4:15:00 hrs:
  ----------------------------------------------
                     Demand      Head  Pressure
  Node                  gpm        ft       psi
  ----------------------------------------------
  2                    0.00    719.71    311.85
  3                  325.00    632.93    -33.40
  4                   75.00    624.74    -32.61
  5                  100.00    620.69    -30.03
  6                   75.00    624.04    -11.25
  7                  100.00    628.09    -31.16
  9                 2189.32    617.36     50.85
  1                -2864.32   1000.00      0.00  Reservoir
  8                    0.00    830.00      0.00  Tank
   
   
  Link Results at 4:15:00 hrs:
  ----------------------------------------------
                       Flow  Velocity  Headloss
  Link                  gpm       fps   /1000ft
  ----------------------------------------------
  1                 2864.32      8.13     28.93
  2                 1448.90      4.11      8.19
  3                  990.97      2.81      4.05
  4                 1090.42      3.09      4.84
  5                  990.42      2.81      4.05
  6                  382.93      1.09      0.70
  9                    0.00      0.00      0.00
  7                 1298.35      3.68      6.68
  10                 890.97      2.53      3.33
  8                 2864.32      0.00    280.29  Pump
   
   
  Node Results at 4:30:00 hrs:
  ----------------------------------------------
                     Demand      Head  Pressure
  Node                  gpm        ft       psi
  ----------------------------------------------
  2                    0.00    719.71    311.85
  3                  325.00    632.93    -33.40
  4                   75.00    624.74    -32.61
  5                  100.00    620.69    -30.03
  6                   75.00    624.04    -11.25
  7                  100.00    628.09    -31.16
  9                 2189.32    617.36     50.85
  1                -2864.32   1000.00      0.00  Reservoir
  8                    0.00    830.00      0.00  Tank
   
   
  Link Results at 4:30:00 hrs:
  ----------------------------------------------
                       Flow  Velocity  Headloss
  Link                  gpm       fps   /1000ft
  ----------------------------------------------
  1                 2864.32      8.13     28.93
  2                 1448.90      4.11      8.19
  3                  990.97      2.81      4.05
  4                 1090.42      3.09      4.84
  5                  990.42      2.81      4.05
  6                  382.93      1.09      0.70
  9                    0.00      0.00      0.00
  7                 1298.35      3.68      6.68
  10                 890.97      2.53      3.33
  8                 2864.32      0.00    280.29  Pump
   
   
  Node Results at 4:45:00 hrs:
  ----------------------------------------------
                     Demand      Head  Pressure
  Node                  gpm        ft       psi
  ----------------------------------------------
  2                    0.00    719.71    311.85
  3                  325.00    632.93    -33.40
  4                   75.00    624.74    -32.61
  5                  100.00    620.69    -30.03
  6                   75.00    624.04    -11.25
  7                  100.00    628.09    -31.16
  9                 2189.32    617.36     50.85
  1                -2864.32   1000.00      0.00  Reservoir
  8                    0.00    830.00      0.00  Tank
   
   
  Link Results at 4:45:00 hrs:
  ----------------------------------------------
                       Flow  Velocity  Headloss
  Link                  gpm       fps   /1000ft
  ----------------------------------------------
  1                 2864.32      8.13     28.93
  2                 1448.90      4.11      8.19
  3                  990.97      2.81      4.05
  4                 1090.42      3.09      4.84
  5                  990.42      2.81      4.05
  6                  382.93      1.09      0.70
  9                    0.00      0.00      0.00
  7                 1298.35      3.68      6.68
  10                 890.97      2.53      3.33
  8                 2864.32      0.00    280.29  Pump
   
   
  Node Results at 5:00:00 hrs:
  ----------------------------------------------
                     Demand      Head  Pressure
  Node                  gpm        ft       psi
  ----------------------------------------------
  2                    0.00    642.72    278.49
  3                  845.00    544.67    -71.64
  4                  195.00    538.71    -69.89
  5                  260.00    536.39    -66.56
  6                  195.00    538.29    -48.41
  7                  260.00    540.61    -69.07
  9                 1304.30    535.36     15.32
  1                -3059.29   1000.00      0.00  Reservoir
  8                    0.00    830.00      0.00  Tank
   
   
  Link Results at 5:00:00 hrs:
  ----------------------------------------------
                       Flow  Velocity  Headloss
  Link                  gpm       fps   /1000ft
  ----------------------------------------------
  1                 3059.29      8.68     32.68
  2                 1221.05      3.46      5.96
  3                  733.15      2.08      2.32
  4                  993.24      2.82      4.07
  5                  733.24      2.08      2.32
  6                  292.90      0.83      0.42
  9                    0.00      0.00      0.00
  7                  831.15      2.36      2.93
  10                 473.15      1.34      1.03
  8                 3059.29      0.00    357.28  Pump
   
   
  Node Results at 5:15:00 hrs:
  ----------------------------------------------
                     Demand      Head  Pressure
  Node                  gpm        ft       psi
  ----------------------------------------------
  2                    0.00    642.72    278.49
  3                  845.00    544.67    -71.64
  4                  195.00    538.71    -69.89
  5                  260.00    536.39    -66.56
  6                  195.00    538.29    -48.41
  7                  260.00    540.61    -69.07
  9                 1304.30    535.36     15.32
  1                -3059.29   1000.00      0.00  Reservoir
  8                    0.00    830.00      0.00  Tank
   
   
  Link Results at 5:15:00 hrs:
  ----------------------------------------------
                       Flow  Velocity  Headloss
  Link                  gpm       fps   /1000ft
  ----------------------------------------------
  1                 3059.29      8.68     32.68
  2                 1221.05      3.46      5.96
  3                  733.15      2.08      2.32
  4                  993.24      2.82      4.07
  5                  733.24      2.08      2.32
  6                  292.90      0.83      0.42
  9                    0.00      0.00      0.00
  7                  831.15      2.36      2.93
  10                 473.15      1.34      1.03
  8                 3059.29      0.00    357.28  Pump
   
   
  Node Results at 5:30:00 hrs:
  ----------------------------------------------
                     Demand      Head  Pressure
  Node                  gpm        ft       psi
  ----------------------------------------------
  2                    0.00    642.72    278.49
  3                  845.00    544.67    -71.64
  4                  195.00    538.71    -69.89
  5                  260.00    536.39    -66.56
  6                  195.00    538.29    -48.41
  7                  260.00    540.61    -69.07
  9                 1304.30    535.36     15.32
  1                -3059.29   1000.00      0.00  Reservoir
  8                    0.00    830.00      0.00  Tank
   
   
  Link Results at 5:30:00 hrs:
  ----------------------------------------------
                       Flow  Velocity  Headloss
  Link                  gpm       fps   /1000ft
  ----------------------------------------------
  1                 3059.29      8.68     32.68
  2                 1221.05      3.46      5.96
  3                  733.15      2.08      2.32
  4                  993.24      2.82      4.07
  5                  733.24      2.08      2.32
  6                  292.90      0.83      0.42
  9                    0.00      0.00      0.00
  7                  831.15      2.36      2.93
  10                 473.15      1.34      1.03
  8                 3059.29      0.00    357.28  Pump
   
   
  Node Results at 5:45:00 hrs:
  ----------------------------------------------
                     Demand      Head  Pressure
  Node                  gpm        ft       psi
  ----------------------------------------------
  2                    0.00    642.72    278.49
  3                  845.00    544.67    -71.64
  4                  195.00    538.71    -69.89
  5                  260.00    536.39    -66.56
  6                  195.00    538.29    -48.41
  7                  260.00    540.61    -69.07
  9                 1304.30    535.36     15.32
  1                -3059.29   1000.00      0.00  Reservoir
  8                    0.00    830.00      0.00  Tank
   
   
  Link Results at 5:45:00 hrs:
  ----------------------------------------------
                       Flow  Velocity  Headloss
  Link                  gpm       fps   /1000ft
  ----------------------------------------------
  1                 3059.29      8.68     32.68
  2                 1221.05      3.46      5.96
  3                  733.15      2.08      2.32
  4                  993.24      2.82      4.07
  5                  733.24      2.08      2.32
  6                  292.90      0.83      0.42
  9                    0.00      0.00      0.00
  7                  831.15      2.36      2.93
  10                 473.15      1.34      1.03
  8                 3059.29      0.00    357.28  Pump
   
   
  Node Results at 6:00:00 hrs:
  ----------------------------------------------
                     Demand      Head  Pressure
  Node                  gpm        ft       psi
  ----------------------------------------------
  2                    0.00    667.45    289.21
  3                  650.00    573.01    -59.36
  4                  150.00    566.19    -57.98
  5                  200.00    563.23    -54.93
  6                  150.00    565.67    -36.54
  7                  200.00    568.62    -56.93
  9                 1648.05    561.45     26.63
  1                -2998.05   1000.00      0.00  Reservoir
  8                    0.00    830.00      0.00  Tank
   
   
  Link Results at 6:00:00 hrs:
  ----------------------------------------------
                       Flow  Velocity  Headloss
  Link                  gpm       fps   /1000ft
  ----------------------------------------------
  1                 2998.05      8.50     31.48
  2                 1312.97      3.72      6.82
  3                  835.70      2.37      2.96
  4                 1035.08      2.94      4.39
  5                  835.08      2.37      2.95
  6                  327.27      0.93      0.52
  9                    0.00      0.00      0.00
  7                 1012.35      2.87      4.22
  10                 635.70      1.80      1.78
  8                 2998.05      0.00    332.55  Pump
   
   
  Node Results at 6:15:00 hrs:
  ----------------------------------------------
                     Demand      Head  Pressure
  Node                  gpm        ft       psi
  ----------------------------------------------
  2                    0.00    667.45    289.21
  3                  650.00    573.01    -59.36
  4                  150.00    566.19    -57.98
  5                  200.00    563.23    -54.93
  6                  150.00    565.67    -36.54
  7                  200.00    568.62    -56.93
  9                 1648.05    561.45     26.63
  1                -2998.05   1000.00      0.00  Reservoir
  8                    0.00    830.00      0.00  Tank
   
   
  Link Results at 6:15:00 hrs:
  ----------------------------------------------
                       Flow  Velocity  Headloss
  Link                  gpm       fps   /1000ft
  ----------------------------------------------
  1                 2998.05      8.50     31.48
  2                 1312.97      3.72      6.82
  3                  835.70      2.37      2.96
  4                 1035.08      2.94      4.39
  5                  835.08      2.37      2.95
  6                  327.27      0.93      0.52
  9                    0.00      0.00      0.00
  7                 1012.35      2.87      4.22
  10                 635.70      1.80      1.78
  8                 2998.05      0.00    332.55  Pump
   
   
  Node Results at 6:30:00 hrs:
  ----------------------------------------------
                     Demand      Head  Pressure
  Node                  gpm        ft       psi
  ----------------------------------------------
  2                    0.00    667.45    289.21
  3                  650.00    573.01    -59.36
  4                  150.00    566.19    -57.98
  5                  200.00    563.23    -54.93
  6                  150.00    565.67    -36.54
  7                  200.00    568.62    -56.93
  9                 1648.05    561.45     26.63
  1                -2998.05   1000.00      0.00  Reservoir
  8                    0.00    830.00      0.00  Tank
   
   
  Link Results at 6:30:00 hrs:
  ----------------------------------------------
                       Flow  Velocity  Headloss
  Link                  gpm       fps   /1000ft
  ----------------------------------------------
  1                 2998.05      8.50     31.48
  2                 1312.97      3.72      6.82
  3                  835.70      2.37      2.96
  4                 1035.08      2.94      4.39
  5                  835.08      2.37      2.95
  6                  327.27      0.93      0.52
  9                    0.00      0.00      0.00
  7                 1012.35      2.87      4.22
  10                 635.70      1.80      1.78
  8                 2998.05      0.00    332.55  Pump
   
   
  Node Results at 6:45:00 hrs:
  ----------------------------------------------
                     Demand      Head  Pressure
  Node                  gpm        ft       psi
  ----------------------------------------------
  2                    0.00    667.45    289.21
  3                  650.00    573.01    -59.36
  4                  150.00    566.19    -57.98
  5                  200.00    563.23    -54.93
  6                  150.00    565.67    -36.54
  7                  200.00    568.62    -56.93
  9                 1648.05    561.45     26.63
  1                -2998.05   1000.00      0.00  Reservoir
  8                    0.00    830.00      0.00  Tank
   
   
  Link Results at 6:45:00 hrs:
  ----------------------------------------------
                       Flow  Velocity  Headloss
  Link                  gpm       fps   /1000ft
  ----------------------------------------------
  1                 2998.05      8.50     31.48
  2                 1312.97      3.72      6.82
  3                  835.70      2.37      2.96
  4                 1035.08      2.94      4.39
  5                  835.08      2.37      2.95
  6                  327.27      0.93      0.52
  9                    0.00      0.00      0.00
  7                 1012.35      2.87      4.22
  10                 635.70      1.80      1.78
  8                 2998.05      0.00    332.55  Pump
   
   
  Node Results at 7:00:00 hrs:
  ----------------------------------------------
                     Demand      Head  Pressure
  Node                  gpm        ft       psi
  ----------------------------------------------
  2                    0.00    650.35    281.80
  3                  780.00    553.42    -67.85
  4                  180.00    547.16    -66.22
  5                  240.00    544.64    -62.99
  6                  180.00    546.71    -44.76
  7                  240.00    549.24    -65.33
  9                 1420.53    543.37     18.79
  1                -3040.53   1000.00      0.00  Reservoir
  8                    0.00    830.00      0.00  Tank
   
   
  Link Results at 7:00:00 hrs:
  ----------------------------------------------
                       Flow  Velocity  Headloss
  Link                  gpm       fps   /1000ft
  ----------------------------------------------
  1                 3040.53      8.63     32.31
  2                 1252.58      3.55      6.25
  3                  768.20      2.18      2.53
  4                 1007.95      2.86      4.18
  5                  767.95      2.18      2.53
  6                  304.38      0.86      0.46
  9                    0.00      0.00      0.00
  7                  892.33      2.53      3.34
  10                 528.20      1.50      1.26
  8                 3040.53      0.00    349.65  Pump
   
   
  Node Results at 7:15:00 hrs:
  ----------------------------------------------
                     Demand      Head  Pressure
  Node                  gpm        ft       psi
  ----------------------------------------------
  2                    0.00    650.35    281.80
  3                  780.00    553.42    -67.85
  4                  180.00    547.16    -66.22
  5                  240.00    544.64    -62.99
  6                  180.00    546.71    -44.76
  7                  240.00    549.24    -65.33
  9                 1420.53    543.37     18.79
  1                -3040.53   1000.00      0.00  Reservoir
  8                    0.00    830.00      0.00  Tank
   
   
  Link Results at 7:15:00 hrs:
  ----------------------------------------------
                       Flow  Velocity  Headloss
  Link                  gpm       fps   /1000ft
  ----------------------------------------------
  1                 3040.53      8.63     32.31
  2                 1252.58      3.55      6.25
  3                  768.20      2.18      2.53
  4                 1007.95      2.86      4.18
  5                  767.95      2.18      2.53
  6                  304.38      0.86      0.46
  9                    0.00      0.00      0.00
  7                  892.33      2.53      3.34
  10                 528.20      1.50      1.26
  8                 3040.53      0.00    349.65  Pump
   
   
  Node Results at 7:30:00 hrs:
  ----------------------------------------------
                     Demand      Head  Pressure
  Node                  gpm        ft       psi
  ----------------------------------------------
  2                    0.00    650.35    281.80
  3                  780.00    553.42    -67.85
  4                  180.00    547.16    -66.22
  5                  240.00    544.64    -62.99
  6                  180.00    546.71    -44.76
  7                  240.00    549.24    -65.33
  9                 1420.53    543.37     18.79
  1                -3040.53   1000.00      0.00  Reservoir
  8                    0.00    830.00      0.00  Tank
   
   
  Link Results at 7:30:00 hrs:
  ----------------------------------------------
                       Flow  Velocity  Headloss
  Link                  gpm       fps   /1000ft
  ----------------------------------------------
  1                 3040.53      8.63     32.31
  2                 1252.58      3.55      6.25
  3                  768.20      2.18      2.53
  4                 1007.95      2.86      4.18
  5                  767.95      2.18      2.53
  6                  304.38      0.86      0.46
  9                    0.00      0.00      0.00
  7                  892.33      2.53      3.34
  10                 528.20      1.50      1.26
  8                 3040.53      0.00    349.65  Pump
   
   
  Node Results at 7:45:00 hrs:
  ----------------------------------------------
                     Demand      Head  Pressure
  Node                  gpm        ft       psi
  ----------------------------------------------
  2                    0.00    722.17    312.92
  3                 -229.66    635.75    -32.17
  4                  180.00    624.35    -32.78
  5                  240.00    619.30    -30.64
  6                  180.00    623.46    -11.50
  7                  240.00    628.51    -30.98
  9                 2247.54    616.07     50.29
  1                -2857.88   1000.00      0.00  Reservoir
  8                    0.00    830.00      0.00  Tank
   
   
  Link Results at 7:45:00 hrs:
  ----------------------------------------------
                       Flow  Velocity  Headloss
  Link                  gpm       fps   /1000ft
  ----------------------------------------------
  1                 2857.88      8.11     28.81
  2                 1732.10      4.91     11.40
  3                 1116.32      3.17      5.05
  4                 1355.44      3.85      7.24
  5                 1115.45      3.16      5.04
  6                  435.77      1.24      0.88
  9                    0.00      0.00      0.00
  7                 1371.22      3.89      7.39
  10                 876.32      2.49      3.23
  8                 2857.88      0.00    277.83  Pump
   
   
  Node Results at 8:00:00 hrs:
  ----------------------------------------------
                     Demand      Head  Pressure
  Node                  gpm        ft       psi
  ----------------------------------------------
  2                    0.00    768.03    332.79
  3                 -219.96    688.37     -9.37
  4                   75.00    677.48     -9.76
  5                  100.00    672.01     -7.80
  6                   75.00    676.54     11.50
  7                  100.00    682.00     -7.80
  9                 2604.84    667.38     72.52
  1                -2734.88   1000.00      0.00  Reservoir
  8                    0.00    830.00      0.00  Tank
   
   
  Link Results at 8:00:00 hrs:
  ----------------------------------------------
                       Flow  Velocity  Headloss
  Link                  gpm       fps   /1000ft
  ----------------------------------------------
  1                 2734.88      7.76     26.55
  2                 1690.16      4.79     10.89
  3                 1165.24      3.31      5.47
  4                 1264.68      3.59      6.36
  5                 1164.68      3.30      5.46
  6                  449.92      1.28      0.94
  9                    0.00      0.00      0.00
  7                 1539.60      4.37      9.16
  10                1065.24      3.02      4.63
  8                 2734.88      0.00    231.97  Pump
   
   
  Node Results at 8:15:00 hrs:
  ----------------------------------------------
                     Demand      Head  Pressure
  Node                  gpm        ft       psi
  ----------------------------------------------
  2                    0.00    768.03    332.79
  3                 -219.96    688.37     -9.37
  4                   75.00    677.48     -9.76
  5                  100.00    672.01     -7.80
  6                   75.00    676.54     11.50
  7                  100.00    682.00     -7.80
  9                 2604.83    667.38     72.52
  1                -2734.88   1000.00      0.00  Reservoir
  8                    0.00    830.00      0.00  Tank
   
   
  Link Results at 8:15:00 hrs:
  ----------------------------------------------
                       Flow  Velocity  Headloss
  Link                  gpm       fps   /1000ft
  ----------------------------------------------
  1                 2734.88      7.76     26.55
  2                 1690.16      4.79     10.89
  3                 1165.23      3.31      5.47
  4                 1264.68      3.59      6.36
  5                 1164.68      3.30      5.46
  6                  449.92      1.28      0.94
  9                    0.00      0.00      0.00
  7                 1539.60      4.37      9.16
  10                1065.23      3.02      4.63
  8                 2734.88      0.00    231.97  Pump
   
   
  Node Results at 8:30:00 hrs:
  ----------------------------------------------
                     Demand      Head  Pressure
  Node                  gpm        ft       psi
  ----------------------------------------------
  2                    0.00    768.03    332.79
  3                 -219.96    688.37     -9.37
  4                   75.00    677.48     -9.76
  5                  100.00    672.01     -7.80
  6                   75.00    676.54     11.50
  7                  100.00    682.00     -7.80
  9                 2604.83    667.38     72.52
  1                -2734.88   1000.00      0.00  Reservoir
  8                    0.00    830.00      0.00  Tank
   
   
  Link Results at 8:30:00 hrs:
  ----------------------------------------------
                       Flow  Velocity  Headloss
  Link                  gpm       fps   /1000ft
  ----------------------------------------------
  1                 2734.88      7.76     26.55
  2                 1690.16      4.79     10.89
  3                 1165.23      3.31      5.47
  4                 1264.68      3.59      6.36
  5                 1164.68      3.30      5.46
  6                  449.92      1.28      0.94
  9                    0.00      0.00      0.00
  7                 1539.60      4.37      9.16
  10                1065.23      3.02      4.63
  8                 2734.88      0.00    231.97  Pump
   
   
  Node Results at 8:45:00 hrs:
  ----------------------------------------------
                     Demand      Head  Pressure
  Node                  gpm        ft       psi
  ----------------------------------------------
  2                    0.00    768.03    332.79
  3                 -219.96    688.37     -9.37
  4                   75.00    677.48     -9.76
  5                  100.00    672.01     -7.80
  6                   75.00    676.54     11.50
  7                  100.00    682.00     -7.80
  9                 2604.83    667.38     72.52
  1                -2734.88   1000.00      0.00  Reservoir
  8                    0.00    830.00      0.00  Tank
   
   
  Link Results at 8:45:00 hrs:
  ----------------------------------------------
                       Flow  Velocity  Headloss
  Link                  gpm       fps   /1000ft
  ----------------------------------------------
  1                 2734.88      7.76     26.55
  2                 1690.16      4.79     10.89
  3                 1165.23      3.31      5.47
  4                 1264.68      3.59      6.36
  5                 1164.68      3.30      5.46
  6                  449.92      1.28      0.94
  9                    0.00      0.00      0.00
  7                 1539.60      4.37      9.16
  10                1065.23      3.02      4.63
  8                 2734.88      0.00    231.97  Pump
   
   
  Node Results at 9:00:00 hrs:
  ----------------------------------------------
                     Demand      Head  Pressure
  Node                  gpm        ft       psi
  ----------------------------------------------
  2                    0.00    715.09    309.85
  3                 -218.44    627.62    -35.69
  4                  195.00    616.24    -36.29
  5                  260.00    611.29    -34.11
  6                  195.00    615.37    -15.01
  7                  260.00    620.31    -34.53
  9                 2184.84    608.27     46.92
  1                -2876.40   1000.00      0.00  Reservoir
  8                    0.00    830.00      0.00  Tank
   
   
  Link Results at 9:00:00 hrs:
  ----------------------------------------------
                       Flow  Velocity  Headloss
  Link                  gpm       fps   /1000ft
  ----------------------------------------------
  1                 2876.40      8.16     29.16
  2                 1731.44      4.91     11.39
  3                 1104.24      3.13      4.95
  4                 1363.41      3.87      7.32
  5                 1103.41      3.13      4.94
  6                  432.20      1.23      0.87
  9                    0.00      0.00      0.00
  7                 1340.60      3.80      7.09
  10                 844.24      2.39      3.01
  8                 2876.40      0.00    284.91  Pump
   
   
  Node Results at 9:15:00 hrs:
  ----------------------------------------------
                     Demand      Head  Pressure
  Node                  gpm        ft       psi
  ----------------------------------------------
  2                    0.00    715.09    309.85
  3                 -218.44    627.62    -35.69
  4                  195.00    616.24    -36.29
  5                  260.00    611.29    -34.11
  6                  195.00    615.37    -15.01
  7                  260.00    620.31    -34.53
  9                 2184.84    608.27     46.92
  1                -2876.40   1000.00      0.00  Reservoir
  8                    0.00    830.00      0.00  Tank
   
   
  Link Results at 9:15:00 hrs:
  ----------------------------------------------
                       Flow  Velocity  Headloss
  Link                  gpm       fps   /1000ft
  ----------------------------------------------
  1                 2876.40      8.16     29.16
  2                 1731.44      4.91     11.39
  3                 1104.24      3.13      4.95
  4                 1363.41      3.87      7.32
  5                 1103.41      3.13      4.94
  6                  432.20      1.23      0.87
  9                    0.00      0.00      0.00
  7                 1340.60      3.80      7.09
  10                 844.24      2.39      3.01
  8                 2876.40      0.00    284.91  Pump
   
   
  Node Results at 9:30:00 hrs:
  ----------------------------------------------
                     Demand      Head  Pressure
  Node                  gpm        ft       psi
  ----------------------------------------------
  2                    0.00    715.09    309.85
  3                 -218.44    627.62    -35.69
  4                  195.00    616.24    -36.29
  5                  260.00    611.29    -34.11
  6                  195.00    615.37    -15.01
  7                  260.00    620.31    -34.53
  9                 2184.84    608.27     46.92
  1                -2876.40   1000.00      0.00  Reservoir
  8                    0.00    830.00      0.00  Tank
   
   
  Link Results at 9:30:00 hrs:
  ----------------------------------------------
                       Flow  Velocity  Headloss
  Link                  gpm       fps   /1000ft
  ----------------------------------------------
  1                 2876.40      8.16     29.16
  2                 1731.44      4.91     11.39
  3                 1104.24      3.13      4.95
  4                 1363.41      3.87      7.32
  5                 1103.41      3.13      4.94
  6                  432.20      1.23      0.87
  9                    0.00      0.00      0.00
  7                 1340.60      3.80      7.09
  10                 844.24      2.39      3.01
  8                 2876.40      0.00    284.91  Pump
   
   
  Node Results at 9:45:00 hrs:
  ----------------------------------------------
                     Demand      Head  Pressure
  Node                  gpm        ft       psi
  ----------------------------------------------
  2                    0.00    715.09    309.85
  3                 -218.44    627.62    -35.69
  4                  195.00    616.24    -36.29
  5                  260.00    611.29    -34.11
  6                  195.00    615.37    -15.01
  7                  260.00    620.31    -34.53
  9                 2184.84    608.27     46.92
  1                -2876.40   1000.00      0.00  Reservoir
  8                    0.00    830.00      0.00  Tank
   
   
  Link Results at 9:45:00 hrs:
  ----------------------------------------------
                       Flow  Velocity  Headloss
  Link                  gpm       fps   /1000ft
  ----------------------------------------------
  1                 2876.40      8.16     29.16
  2                 1731.44      4.91     11.39
  3                 1104.24      3.13      4.95
  4                 1363.41      3.87      7.32
  5                 1103.41      3.13      4.94
  6                  432.20      1.23      0.87
  9                    0.00      0.00      0.00
  7                 1340.60      3.80      7.09
  10                 844.24      2.39      3.01
  8                 2876.40      0.00    284.91  Pump
   
   
  Node Results at 10:00:00 hrs:
  ----------------------------------------------
                     Demand      Head  Pressure
  Node                  gpm        ft       psi
  ----------------------------------------------
  2                    0.00    736.15    318.97
  3                 -244.00    651.78    -25.23
  4                  150.00    640.43    -25.81
  5                  200.00    635.20    -23.74
  6                  150.00    639.52     -4.54
  7                  200.00    644.74    -23.95
  9                 2364.95    631.55     57.00
  1                -2820.95   1000.00      0.00  Reservoir
  8                    0.00    830.00      0.00  Tank
   
   
  Link Results at 10:00:00 hrs:
  ----------------------------------------------
                       Flow  Velocity  Headloss
  Link                  gpm       fps   /1000ft
  ----------------------------------------------
  1                 2820.95      8.00     28.12
  2                 1728.87      4.90     11.36
  3                 1136.97      3.23      5.23
  4                 1336.08      3.79      7.05
  5                 1136.08      3.22      5.22
  6                  441.90      1.25      0.91
  9                    0.00      0.00      0.00
  7                 1427.98      4.05      7.97
  10                 936.97      2.66      3.65
  8                 2820.95      0.00    263.85  Pump
   
   
  Node Results at 10:15:00 hrs:
  ----------------------------------------------
                     Demand      Head  Pressure
  Node                  gpm        ft       psi
  ----------------------------------------------
  2                    0.00    736.15    318.97
  3                 -244.00    651.78    -25.23
  4                  150.00    640.43    -25.81
  5                  200.00    635.20    -23.74
  6                  150.00    639.52     -4.54
  7                  200.00    644.74    -23.95
  9                 2364.95    631.55     57.00
  1                -2820.95   1000.00      0.00  Reservoir
  8                    0.00    830.00      0.00  Tank
   
   
  Link Results at 10:15:00 hrs:
  ----------------------------------------------
                       Flow  Velocity  Headloss
  Link                  gpm       fps   /1000ft
  ----------------------------------------------
  1                 2820.95      8.00     28.12
  2                 1728.87      4.90     11.36
  3                 1136.97      3.23      5.23
  4                 1336.08      3.79      7.05
  5                 1136.08      3.22      5.22
  6                  441.90      1.25      0.91
  9                    0.00      0.00      0.00
  7                 1427.98      4.05      7.97
  10                 936.97      2.66      3.65
  8                 2820.95      0.00    263.85  Pump
   
   
  Node Results at 10:30:00 hrs:
  ----------------------------------------------
                     Demand      Head  Pressure
  Node                  gpm        ft       psi
  ----------------------------------------------
  2                    0.00    736.15    318.97
  3                 -244.00    651.78    -25.23
  4                  150.00    640.43    -25.81
  5                  200.00    635.20    -23.74
  6                  150.00    639.52     -4.54
  7                  200.00    644.74    -23.95
  9                 2364.95    631.55     57.00
  1                -2820.95   1000.00      0.00  Reservoir
  8                    0.00    830.00      0.00  Tank
   
   
  Link Results at 10:30:00 hrs:
  ----------------------------------------------
                       Flow  Velocity  Headloss
  Link                  gpm       fps   /1000ft
  ----------------------------------------------
  1                 2820.95      8.00     28.12
  2                 1728.87      4.90     11.36
  3                 1136.97      3.23      5.23
  4                 1336.08      3.79      7.05
  5                 1136.08      3.22      5.22
  6                  441.90      1.25      0.91
  9                    0.00      0.00      0.00
  7                 1427.98      4.05      7.97
  10                 936.97      2.66      3.65
  8                 2820.95      0.00    263.85  Pump
   
   
  Node Results at 10:45:00 hrs:
  ----------------------------------------------
                     Demand      Head  Pressure
  Node                  gpm        ft       psi
  ----------------------------------------------
  2                    0.00    736.15    318.97
  3                 -244.00    651.78    -25.23
  4                  150.00    640.43    -25.81
  5                  200.00    635.20    -23.74
  6                  150.00    639.52     -4.54
  7                  200.00    644.74    -23.95
  9                 2364.95    631.55     57.00
  1                -2820.95   1000.00      0.00  Reservoir
  8                    0.00    830.00      0.00  Tank
   
   
  Link Results at 10:45:00 hrs:
  ----------------------------------------------
                       Flow  Velocity  Headloss
  Link                  gpm       fps   /1000ft
  ----------------------------------------------
  1                 2820.95      8.00     28.12
  2                 1728.87      4.90     11.36
  3                 1136.97      3.23      5.23
  4                 1336.08      3.79      7.05
  5                 1136.08      3.22      5.22
  6                  441.90      1.25      0.91
  9                    0.00      0.00      0.00
  7                 1427.98      4.05      7.97
  10                 936.97      2.66      3.65
  8                 2820.95      0.00    263.85  Pump
   
   
  Node Results at 11:00:00 hrs:
  ----------------------------------------------
                     Demand      Head  Pressure
  Node                  gpm        ft       psi
  ----------------------------------------------
  2                    0.00    722.17    312.92
  3                 -229.66    635.75    -32.17
  4                  180.00    624.35    -32.78
  5                  240.00    619.30    -30.64
  6                  180.00    623.46    -11.50
  7                  240.00    628.51    -30.98
  9                 2247.54    616.07     50.29
  1                -2857.88   1000.00      0.00  Reservoir
  8                    0.00    830.00      0.00  Tank
   
   
  Link Results at 11:00:00 hrs:
  ----------------------------------------------
                       Flow  Velocity  Headloss
  Link                  gpm       fps   /1000ft
  ----------------------------------------------
  1                 2857.88      8.11     28.81
  2                 1732.10      4.91     11.40
  3                 1116.32      3.17      5.05
  4                 1355.44      3.85      7.24
  5                 1115.44      3.16      5.04
  6                  435.77      1.24      0.88
  9                    0.00      0.00      0.00
  7                 1371.22      3.89      7.39
  10                 876.32      2.49      3.23
  8                 2857.88      0.00    277.83  Pump
   
   
[...]
  4                 1264.68      3.59      6.36
  5                 1164.68      3.30      5.46
  6                  449.92      1.28      0.94
  9                    0.00      0.00      0.00
  7                 1539.60      4.37      9.16
  10                1065.23      3.02      4.63
  8                 2734.88      0.00    231.97  Pump
   
   
  Node Results at 20:45:00 hrs:
  ----------------------------------------------
                     Demand      Head  Pressure
  Node                  gpm        ft       psi
  ----------------------------------------------
  2                    0.00    768.03    332.79
  3                 -219.96    688.37     -9.37
  4                   75.00    677.48     -9.76
  5                  100.00    672.01     -7.80
  6                   75.00    676.54     11.50
  7                  100.00    682.00     -7.80
  9                 2604.83    667.38     72.52
  1                -2734.88   1000.00      0.00  Reservoir
  8                    0.00    830.00      0.00  Tank
   
   
  Link Results at 20:45:00 hrs:
  ----------------------------------------------
                       Flow  Velocity  Headloss
  Link                  gpm       fps   /1000ft
  ----------------------------------------------
  1                 2734.88      7.76     26.55
  2                 1690.16      4.79     10.89
  3                 1165.23      3.31      5.47
  4                 1264.68      3.59      6.36
  5                 1164.68      3.30      5.46
  6                  449.92      1.28      0.94
  9                    0.00      0.00      0.00
  7                 1539.60      4.37      9.16
  10                1065.23      3.02      4.63
  8                 2734.88      0.00    231.97  Pump
   
   
  Node Results at 21:00:00 hrs:
  ----------------------------------------------
                     Demand      Head  Pressure
  Node                  gpm        ft       psi
  ----------------------------------------------
  2                    0.00    715.09    309.85
  3                 -218.44    627.62    -35.69
  4                  195.00    616.24    -36.29
  5                  260.00    611.29    -34.11
  6                  195.00    615.37    -15.01
  7                  260.00    620.31    -34.53
  9                 2184.84    608.27     46.92
  1                -2876.40   1000.00      0.00  Reservoir
  8                    0.00    830.00      0.00  Tank
   
   
  Link Results at 21:00:00 hrs:
  ----------------------------------------------
                       Flow  Velocity  Headloss
  Link                  gpm       fps   /1000ft
  ----------------------------------------------
  1                 2876.40      8.16     29.16
  2                 1731.44      4.91     11.39
  3                 1104.24      3.13      4.95
  4                 1363.41      3.87      7.32
  5                 1103.41      3.13      4.94
  6                  432.20      1.23      0.87
  9                    0.00      0.00      0.00
  7                 1340.60      3.80      7.09
  10                 844.24      2.39      3.01
  8                 2876.40      0.00    284.91  Pump
   
   
  Node Results at 21:15:00 hrs:
  ----------------------------------------------
                     Demand      Head  Pressure
  Node                  gpm        ft       psi
  ----------------------------------------------
  2                    0.00    715.09    309.85
  3                 -218.44    627.62    -35.69
  4                  195.00    616.24    -36.29
  5                  260.00    611.29    -34.11
  6                  195.00    615.37    -15.01
  7                  260.00    620.31    -34.53
  9                 2184.84    608.27     46.92
  1                -2876.40   1000.00      0.00  Reservoir
  8                    0.00    830.00      0.00  Tank
   
   
  Link Results at 21:15:00 hrs:
  ----------------------------------------------
                       Flow  Velocity  Headloss
  Link                  gpm       fps   /1000ft
  ----------------------------------------------
  1                 2876.40      8.16     29.16
  2                 1731.44      4.91     11.39
  3                 1104.24      3.13      4.95
  4                 1363.41      3.87      7.32
  5                 1103.41      3.13      4.94
  6                  432.20      1.23      0.87
  9                    0.00      0.00      0.00
  7                 1340.60      3.80      7.09
  10                 844.24      2.39      3.01
  8                 2876.40      0.00    284.91  Pump
   
   
  Node Results at 21:30:00 hrs:
  ----------------------------------------------
                     Demand      Head  Pressure
  Node                  gpm        ft       psi
  ----------------------------------------------
  2                    0.00    715.09    309.85
  3                 -218.44    627.62    -35.69
  4                  195.00    616.24    -36.29
  5                  260.00    611.29    -34.11
  6                  195.00    615.37    -15.01
  7                  260.00    620.31    -34.53
  9                 2184.84    608.27     46.92
  1                -2876.40   1000.00      0.00  Reservoir
  8                    0.00    830.00      0.00  Tank
   
   
  Link Results at 21:30:00 hrs:
  ----------------------------------------------
                       Flow  Velocity  Headloss
  Link                  gpm       fps   /1000ft
  ----------------------------------------------
  1                 2876.40      8.16     29.16
  2                 1731.44      4.91     11.39
  3                 1104.24      3.13      4.95
  4                 1363.41      3.87      7.32
  5                 1103.41      3.13      4.94
  6                  432.20      1.23      0.87
  9                    0.00      0.00      0.00
  7                 1340.60      3.80      7.09
  10                 844.24      2.39      3.01
  8                 2876.40      0.00    284.91  Pump
   
   
  Node Results at 21:45:00 hrs:
  ----------------------------------------------
                     Demand      Head  Pressure
  Node                  gpm        ft       psi
  ----------------------------------------------
  2                    0.00    715.09    309.85
  3                 -218.44    627.62    -35.69
  4                  195.00    616.24    -36.29
  5                  260.00    611.29    -34.11
  6                  195.00    615.37    -15.01
  7                  260.00    620.31    -34.53
  9                 2184.84    608.27     46.92
  1                -2876.40   1000.00      0.00  Reservoir
  8                    0.00    830.00      0.00  Tank
   
   
  Link Results at 21:45:00 hrs:
  ----------------------------------------------
                       Flow  Velocity  Headloss
  Link                  gpm       fps   /1000ft
  ----------------------------------------------
  1                 2876.40      8.16     29.16
  2                 1731.44      4.91     11.39
  3                 1104.24      3.13      4.95
  4                 1363.41      3.87      7.32
  5                 1103.41      3.13      4.94
  6                  432.20      1.23      0.87
  9                    0.00      0.00      0.00
  7                 1340.60      3.80      7.09
  10                 844.24      2.39      3.01
  8                 2876.40      0.00    284.91  Pump
   
   
  Node Results at 22:00:00 hrs:
  ----------------------------------------------
                     Demand      Head  Pressure
  Node                  gpm        ft       psi
  ----------------------------------------------
  2                    0.00    736.15    318.97
  3                 -244.00    651.78    -25.23
  4                  150.00    640.43    -25.81
  5                  200.00    635.20    -23.74
  6                  150.00    639.52     -4.54
  7                  200.00    644.74    -23.95
  9                 2364.95    631.55     57.00
  1                -2820.95   1000.00      0.00  Reservoir
  8                    0.00    830.00      0.00  Tank
   
   
  Link Results at 22:00:00 hrs:
  ----------------------------------------------
                       Flow  Velocity  Headloss
  Link                  gpm       fps   /1000ft
  ----------------------------------------------
  1                 2820.95      8.00     28.12
  2                 1728.87      4.90     11.36
  3                 1136.97      3.23      5.23
  4                 1336.08      3.79      7.05
  5                 1136.08      3.22      5.22
  6                  441.90      1.25      0.91
  9                    0.00      0.00      0.00
  7                 1427.98      4.05      7.97
  10                 936.97      2.66      3.65
  8                 2820.95      0.00    263.85  Pump
   
   
  Node Results at 22:15:00 hrs:
  ----------------------------------------------
                     Demand      Head  Pressure
  Node                  gpm        ft       psi
  ----------------------------------------------
  2                    0.00    736.15    318.97
  3                 -244.00    651.78    -25.23
  4                  150.00    640.43    -25.81
  5                  200.00    635.20    -23.74
  6                  150.00    639.52     -4.54
  7                  200.00    644.74    -23.95
  9                 2364.95    631.55     57.00
  1                -2820.95   1000.00      0.00  Reservoir
  8                    0.00    830.00      0.00  Tank
   
   
  Link Results at 22:15:00 hrs:
  ----------------------------------------------
                       Flow  Velocity  Headloss
  Link                  gpm       fps   /1000ft
  ----------------------------------------------
  1                 2820.95      8.00     28.12
  2                 1728.87      4.90     11.36
  3                 1136.97      3.23      5.23
  4                 1336.08      3.79      7.05
  5                 1136.08      3.22      5.22
  6                  441.90      1.25      0.91
  9                    0.00      0.00      0.00
  7                 1427.98      4.05      7.97
  10                 936.97      2.66      3.65
  8                 2820.95      0.00    263.85  Pump
   
   
  Node Results at 22:30:00 hrs:
  ----------------------------------------------
                     Demand      Head  Pressure
  Node                  gpm        ft       psi
  ----------------------------------------------
  2                    0.00    736.15    318.97
  3                 -244.00    651.78    -25.23
  4                  150.00    640.43    -25.81
  5                  200.00    635.20    -23.74
  6                  150.00    639.52     -4.54
  7                  200.00    644.74    -23.95
  9                 2364.95    631.55     57.00
  1                -2820.95   1000.00      0.00  Reservoir
  8                    0.00    830.00      0.00  Tank
   
   
  Link Results at 22:30:00 hrs:
  ----------------------------------------------
                       Flow  Velocity  Headloss
  Link                  gpm       fps   /1000ft
  ----------------------------------------------
  1                 2820.95      8.00     28.12
  2                 1728.87      4.90     11.36
  3                 1136.97      3.23      5.23
  4                 1336.08      3.79      7.05
  5                 1136.08      3.22      5.22
  6                  441.90      1.25      0.91
  9                    0.00      0.00      0.00
  7                 1427.98      4.05      7.97
  10                 936.97      2.66      3.65
  8                 2820.95      0.00    263.85  Pump
   
   
  Node Results at 22:45:00 hrs:
  ----------------------------------------------
                     Demand      Head  Pressure
  Node                  gpm        ft       psi
  ----------------------------------------------
  2                    0.00    736.15    318.97
  3                 -244.00    651.78    -25.23
  4                  150.00    640.43    -25.81
  5                  200.00    635.20    -23.74
  6                  150.00    639.52     -4.54
  7                  200.00    644.74    -23.95
  9                 2364.95    631.55     57.00
  1                -2820.95   1000.00      0.00  Reservoir
  8                    0.00    830.00      0.00  Tank
   
   
  Link Results at 22:45:00 hrs:
  ----------------------------------------------
                       Flow  Velocity  Headloss
  Link                  gpm       fps   /1000ft
  ----------------------------------------------
  1                 2820.95      8.00     28.12
  2                 1728.87      4.90     11.36
  3                 1136.97      3.23      5.23
  4                 1336.08      3.79      7.05
  5                 1136.08      3.22      5.22
  6                  441.90      1.25      0.91
  9                    0.00      0.00      0.00
  7                 1427.98      4.05      7.97
  10                 936.97      2.66      3.65
  8                 2820.95      0.00    263.85  Pump
   
   
  Node Results at 23:00:00 hrs:
  ----------------------------------------------
                     Demand      Head  Pressure
  Node                  gpm        ft       psi
  ----------------------------------------------
  2                    0.00    722.17    312.92
  3                 -229.66    635.75    -32.17
  4                  180.00    624.35    -32.78
  5                  240.00    619.30    -30.64
  6                  180.00    623.46    -11.50
  7                  240.00    628.51    -30.98
  9                 2247.54    616.07     50.29
  1                -2857.88   1000.00      0.00  Reservoir
  8                    0.00    830.00      0.00  Tank
   
   
  Link Results at 23:00:00 hrs:
  ----------------------------------------------
                       Flow  Velocity  Headloss
  Link                  gpm       fps   /1000ft
  ----------------------------------------------
  1                 2857.88      8.11     28.81
  2                 1732.10      4.91     11.40
  3                 1116.32      3.17      5.05
  4                 1355.44      3.85      7.24
  5                 1115.44      3.16      5.04
  6                  435.77      1.24      0.88
  9                    0.00      0.00      0.00
  7                 1371.22      3.89      7.39
  10                 876.32      2.49      3.23
  8                 2857.88      0.00    277.83  Pump
   
   
  Node Results at 23:15:00 hrs:
  ----------------------------------------------
                     Demand      Head  Pressure
  Node                  gpm        ft       psi
  ----------------------------------------------
  2                    0.00    722.17    312.92
  3                 -229.66    635.75    -32.17
  4                  180.00    624.35    -32.78
  5                  240.00    619.30    -30.64
  6                  180.00    623.46    -11.50
  7                  240.00    628.51    -30.98
  9                 2247.54    616.07     50.29
  1                -2857.88   1000.00      0.00  Reservoir
  8                    0.00    830.00      0.00  Tank
   
   
  Link Results at 23:15:00 hrs:
  ----------------------------------------------
                       Flow  Velocity  Headloss
  Link                  gpm       fps   /1000ft
  ----------------------------------------------
  1                 2857.88      8.11     28.81
  2                 1732.10      4.91     11.40
  3                 1116.32      3.17      5.05
  4                 1355.44      3.85      7.24
  5                 1115.44      3.16      5.04
  6                  435.77      1.24      0.88
  9                    0.00      0.00      0.00
  7                 1371.22      3.89      7.39
  10                 876.32      2.49      3.23
  8                 2857.88      0.00    277.83  Pump
   
   
  Node Results at 23:30:00 hrs:
  ----------------------------------------------
                     Demand      Head  Pressure
  Node                  gpm        ft       psi
  ----------------------------------------------
  2                    0.00    722.17    312.92
  3                 -229.66    635.75    -32.17
  4                  180.00    624.35    -32.78
  5                  240.00    619.30    -30.64
  6                  180.00    623.46    -11.50
  7                  240.00    628.51    -30.98
  9                 2247.54    616.07     50.29
  1                -2857.88   1000.00      0.00  Reservoir
  8                    0.00    830.00      0.00  Tank
   
   
  Link Results at 23:30:00 hrs:
  ----------------------------------------------
                       Flow  Velocity  Headloss
  Link                  gpm       fps   /1000ft
  ----------------------------------------------
  1                 2857.88      8.11     28.81
  2                 1732.10      4.91     11.40
  3                 1116.32      3.17      5.05
  4                 1355.44      3.85      7.24
  5                 1115.44      3.16      5.04
  6                  435.77      1.24      0.88
  9                    0.00      0.00      0.00
  7                 1371.22      3.89      7.39
  10                 876.32      2.49      3.23
  8                 2857.88      0.00    277.83  Pump
   
   
  Node Results at 23:45:00 hrs:
  ----------------------------------------------
                     Demand      Head  Pressure
  Node                  gpm        ft       psi
  ----------------------------------------------
  2                    0.00    722.17    312.92
  3                 -229.66    635.75    -32.17
  4                  180.00    624.35    -32.78
  5                  240.00    619.30    -30.64
  6                  180.00    623.46    -11.50
  7                  240.00    628.51    -30.98
  9                 2247.54    616.07     50.29
  1                -2857.88   1000.00      0.00  Reservoir
  8                    0.00    830.00      0.00  Tank
   
   
  Link Results at 23:45:00 hrs:
  ----------------------------------------------
                       Flow  Velocity  Headloss
  Link                  gpm       fps   /1000ft
  ----------------------------------------------
  1                 2857.88      8.11     28.81
  2                 1732.10      4.91     11.40
  3                 1116.32      3.17      5.05
  4                 1355.44      3.85      7.24
  5                 1115.44      3.16      5.04
  6                  435.77      1.24      0.88
  9                    0.00      0.00      0.00
  7                 1371.22      3.89      7.39
  10                 876.32      2.49      3.23
  8                 2857.88      0.00    277.83  Pump
   
   
  Node Results at 24:00:00 hrs:
  ----------------------------------------------
                     Demand      Head  Pressure
  Node                  gpm        ft       psi
  ----------------------------------------------
  2                    0.00    768.03    332.79
  3                 -219.96    688.37     -9.37
  4                   75.00    677.48     -9.76
  5                  100.00    672.01     -7.80
  6                   75.00    676.54     11.50
  7                  100.00    682.00     -7.80
  9                 2604.84    667.38     72.52
  1                -2734.88   1000.00      0.00  Reservoir
  8                    0.00    830.00      0.00  Tank
   
   
  Link Results at 24:00:00 hrs:
  ----------------------------------------------
                       Flow  Velocity  Headloss
  Link                  gpm       fps   /1000ft
  ----------------------------------------------
  1                 2734.88      7.76     26.55
  2                 1690.16      4.79     10.89
  3                 1165.24      3.31      5.47
  4                 1264.68      3.59      6.36
  5                 1164.68      3.30      5.46
  6                  449.92      1.28      0.94
  9                    0.00      0.00      0.00
  7                 1539.60      4.37      9.16
  10                1065.24      3.02      4.63
  8                 2734.88      0.00    231.97  Pump
   