  Page 1                                    Fri Aug 17 00:25:42 2018

  ******************************************************************
  *                           E P A N E T                          *
  *                   Hydraulic and Water Quality                  *
  *                   Analysis for Pipe Networks                   *
  *                         Version 2.00.12                        *
  ******************************************************************
  
  Richmond Standard Water Supply System. Updated 22 December 2008 
  For more information on this network, see the file Richmond_readme.txt
  with this network, or email Kobus van Zyl at kobusvanzyl@mail.com 
   
      Input Data File ................... ../Data/final_input.inp
      Number of Junctions................ 865
      Number of Reservoirs............... 1
      Number of Tanks ................... 6
      Number of Pipes ................... 949
      Number of Pumps ................... 7
      Number of Valves .................. 1
      Headloss Formula .................. Hazen-Williams
      Hydraulic Timestep ................ 1.00 hrs
      Hydraulic Accuracy ................ 0.001000
      Status Check Frequency ............ 3
      Maximum Trials Checked ............ 10
      Damping Limit Threshold ........... 0.000000
      Maximum Trials .................... 40
      Quality Analysis .................. Chemical
      Water Quality Time Step ........... 60.00 min
      Water Quality Tolerance ........... 0.01 mg/L
      Specific Gravity .................. 1.00
      Relative Kinematic Viscosity ...... 1.00
      Relative Chemical Diffusivity ..... 1.00
      Demand Multiplier ................. 1.00
      Total Duration .................... 24.00 hrs
      Reporting Criteria:
         All Nodes
         All Links
   
   
  Hydraulic Status:
  -----------------------------------------------------------------------
     0:00:00: Balanced after 8 trials
     0:00:00: Reservoir O is emptying
     0:00:00: Tank A is emptying at 3.12 ft
     0:00:00: Tank B is emptying at 3.37 ft
     0:00:00: Tank C is emptying at 1.84 ft
     0:00:00: Tank D is emptying at 1.94 ft
     0:00:00: Tank E is filling at 2.47 ft
     0:00:00: Tank F is closed at 1.96 ft
     0:00:00: CV 1035 closed
     0:00:00: CV 1168 closed
     0:00:00: CV 1198 closed
     0:00:00: CV 1795 closed
     0:00:00: CV 1956 closed
     0:00:00: PRV v1708 open
   
     1:00:00: Pump 6D changed by Tank D control
     1:00:00: Pump 6D changed by Tank D control
     1:00:00: Pipe v1E changed by Tank E control
     1:00:00: Balanced after 8 trials
     1:00:00: Tank A is filling at 3.10 ft
     1:00:00: Tank C is closed at 1.68 ft
     1:00:00: Tank E is closed at 0.00 ft
     1:00:00: Pipe v1E changed from open to closed
   
     1:00:04: Pump 4B changed by Tank B control
     1:00:04: Pump 6D changed by Tank D control
     1:00:04: Pipe v1E changed by Tank E control
     1:00:04: Balanced after 17 trials
     1:00:04: Tank A is emptying at 3.10 ft
     1:00:04: Tank E is filling at 0.00 ft
     1:00:04: CV 1198 changed from closed to open
     1:00:04: CV 1216 changed from open to closed
     1:00:04: Pipe v1E changed from closed to open
     1:00:04: Pump 4B changed from closed to open
     1:00:04: Pump 6D changed from closed to open
   
     1:00:36: Pump 6D changed by Tank D control
     1:00:36: Pipe v1E changed by Tank E control
     1:00:36: Balanced after 4 trials
     1:00:36: Tank E is closed at 0.00 ft
     1:00:36: CV 1198 changed from open to closed
     1:00:36: CV 1216 changed from closed to open
     1:00:36: Pipe v1E changed from open to closed
     1:00:36: Pump 6D changed from open to closed
   
     1:35:58: Pump 1A changed by Tank A control
     1:35:58: Pump 3A changed by Tank A control
     1:35:58: Pump 6D changed by Tank D control
     1:35:58: Pipe v1E changed by Tank E control
     1:35:58: Balanced after 17 trials
     1:35:58: Tank E is filling at 0.00 ft
     1:35:58: CV 1198 changed from closed to open
     1:35:58: CV 1216 changed from open to closed
     1:35:58: Pipe v1E changed from closed to open
     1:35:58: CV 1845 changed from open to closed
     1:35:58: Pump 1A changed from closed to open
     1:35:58: Pump 3A changed from closed to open
     1:35:58: Pump 6D changed from closed to open
   
  WARNING: Pump 1A open but exceeds maximum flow at 1:35:58 hrs.
  
     2:00:00: Pump 6D changed by Tank D control
     2:00:00: Pipe v1E changed by Tank E control
     2:00:00: Balanced after 4 trials
     2:00:00: Tank A is closed at 2.43 ft
     2:00:00: Tank E is closed at 0.00 ft
     2:00:00: CV 1198 changed from open to closed
     2:00:00: CV 1216 changed from closed to open
     2:00:00: Pipe v1E changed from open to closed
     2:00:00: Pump 6D changed from open to closed
   
  WARNING: Pump 1A open but exceeds maximum flow at 2:00:00 hrs.
  
     3:00:00: Pump 6D changed by Tank D control
     3:00:00: Pipe v1E changed by Tank E control
     3:00:00: Balanced after 17 trials
     3:00:00: Tank A is emptying at 2.42 ft
     3:00:00: Tank E is filling at 0.00 ft
     3:00:00: CV 1198 changed from closed to open
     3:00:00: CV 1216 changed from open to closed
     3:00:00: Pipe v1E changed from closed to open
     3:00:00: Pump 6D changed from closed to open
   
  WARNING: Pump 1A open but exceeds maximum flow at 3:00:00 hrs.
  
     3:16:20: Pump 2A changed by Tank A control
     3:16:20: Pump 6D changed by Tank D control
     3:16:20: Pipe v1E changed by Tank E control
     3:16:20: Balanced after 5 trials
     3:16:20: Tank A is filling at 2.36 ft
     3:16:20: Tank E is closed at 0.00 ft
     3:16:20: CV 1198 changed from open to closed
     3:16:20: CV 1216 changed from closed to open
     3:16:20: Pipe v1E changed from open to closed
     3:16:20: Pump 2A changed from closed to open
     3:16:20: Pump 6D changed from open to closed
   
  WARNING: Pump 3A open but exceeds maximum flow at 3:16:20 hrs.
  
     4:00:00: Pump 6D changed by Tank D control
     4:00:00: Pipe v1E changed by Tank E control
     4:00:00: Balanced after 17 trials
     4:00:00: Tank E is filling at 0.00 ft
     4:00:00: CV 1198 changed from closed to open
     4:00:00: CV 1216 changed from open to closed
     4:00:00: Pipe v1E changed from closed to open
     4:00:00: Pump 6D changed from closed to open
   
  WARNING: Pump 3A open but exceeds maximum flow at 4:00:00 hrs.
  
     4:08:42: Pump 5C changed by Tank C control
     4:08:42: Pump 6D changed by Tank D control
     4:08:42: Pipe v1E changed by Tank E control
     4:08:42: Balanced after 5 trials
     4:08:42: Tank C is filling at 1.40 ft
     4:08:42: Tank E is closed at 0.00 ft
     4:08:42: CV 1198 changed from open to closed
     4:08:42: CV 1216 changed from closed to open
     4:08:42: Pipe v1E changed from open to closed
     4:08:42: Pump 5C changed from closed to open
     4:08:42: Pump 6D changed from open to closed
   
  WARNING: Pump 3A open but exceeds maximum flow at 4:08:42 hrs.
  
     4:30:02: Pump 1A changed by Tank A control
     4:30:02: Pump 2A changed by Tank A control
     4:30:02: Pump 3A changed by Tank A control
     4:30:02: Pump 6D changed by Tank D control
     4:30:02: Pipe v1E changed by Tank E control
     4:30:02: Balanced after 17 trials
     4:30:02: Tank A is emptying at 3.27 ft
     4:30:02: Tank E is filling at 0.00 ft
     4:30:02: CV 1198 changed from closed to open
     4:30:02: CV 1216 changed from open to closed
     4:30:02: Pipe v1E changed from closed to open
     4:30:02: CV 1845 changed from closed to open
     4:30:02: Pump 1A changed from open to closed
     4:30:02: Pump 2A changed from open to closed
     4:30:02: Pump 3A changed from open to closed
     4:30:02: Pump 6D changed from closed to open
   
     4:33:01: Pump 5C changed by Tank C control
     4:33:01: Pump 6D changed by Tank D control
     4:33:01: Pipe v1E changed by Tank E control
     4:33:01: Balanced after 4 trials
     4:33:01: Tank C is closed at 1.94 ft
     4:33:01: Tank E is closed at 0.00 ft
     4:33:01: CV 1198 changed from open to closed
     4:33:01: CV 1216 changed from closed to open
     4:33:01: Pipe v1E changed from open to closed
     4:33:01: Pump 5C changed from open to closed
     4:33:01: Pump 6D changed from open to closed
   
     5:00:00: Pump 6D changed by Tank D control
     5:00:00: Pipe v1E changed by Tank E control
     5:00:00: Balanced after 17 trials
     5:00:00: Tank E is filling at 0.00 ft
     5:00:00: CV 1198 changed from closed to open
     5:00:00: CV 1216 changed from open to closed
     5:00:00: Pipe v1E changed from closed to open
     5:00:00: Pump 6D changed from closed to open
   
     5:12:55: Pump 1A changed by Tank A control
     5:12:55: Pump 3A changed by Tank A control
     5:12:55: Pump 6D changed by Tank D control
     5:12:55: Pipe v1E changed by Tank E control
     5:12:55: Balanced after 11 trials
     5:12:55: Tank A is closed at 2.53 ft
     5:12:55: Tank E is closed at 0.00 ft
     5:12:55: CV 1198 changed from open to closed
     5:12:55: CV 1216 changed from closed to open
     5:12:55: Pipe v1E changed from open to closed
     5:12:55: CV 1845 changed from open to closed
     5:12:55: Pump 1A changed from closed to open
     5:12:55: Pump 3A changed from closed to open
     5:12:55: Pump 6D changed from open to closed
   
  WARNING: Pump 1A open but exceeds maximum flow at 5:12:55 hrs.
  
     6:00:00: Pump 6D changed by Tank D control
     6:00:00: Pipe v1E changed by Tank E control
     6:00:00: Balanced after 17 trials
     6:00:00: Tank A is emptying at 2.52 ft
     6:00:00: Tank C is emptying at 1.81 ft
     6:00:00: Tank E is filling at 0.00 ft
     6:00:00: CV 1198 changed from closed to open
     6:00:00: CV 1216 changed from open to closed
     6:00:00: Pipe v1E changed from closed to open
     6:00:00: Pump 6D changed from closed to open
   
  WARNING: Pump 1A open but exceeds maximum flow at 6:00:00 hrs.
  
     6:11:45: Pump 6D changed by Tank D control
     6:11:45: Pump 7F changed by Tank F control
     6:11:45: Pipe v1E changed by Tank E control
     6:11:45: Balanced after 10 trials
     6:11:45: Tank E is emptying at 0.00 ft
     6:11:45: Tank F is filling at 1.53 ft
     6:11:45: CV 1198 changed from open to closed
     6:11:45: CV 1216 changed from closed to open
     6:11:45: Pipe v1E changed from open to closed
     6:11:45: CV 1795 changed from closed to open
     6:11:45: CV 1973 changed from open to closed
     6:11:45: Pump 6D changed from open to closed
     6:11:45: Pump 7F changed from closed to open
   
  WARNING: Pump 1A open but exceeds maximum flow at 6:11:45 hrs.
  WARNING: Pump 7F open but exceeds maximum flow at 6:11:45 hrs.
  
     6:11:46: Pump 6D changed by Tank D control
     6:11:46: Pump 7F changed by Tank F control
     6:11:46: Pipe v1E changed by Tank E control
     6:11:46: Balanced after 11 trials
     6:11:46: Tank E is filling at 0.00 ft
     6:11:46: Tank F is closed at 2.19 ft
     6:11:46: CV 1198 changed from closed to open
     6:11:46: CV 1216 changed from open to closed
     6:11:46: Pipe v1E changed from closed to open
     6:11:46: CV 1795 changed from open to closed
     6:11:46: CV 1839 changed from open to closed
     6:11:46: CV 1973 changed from closed to open
     6:11:46: Pump 6D changed from closed to open
     6:11:46: Pump 7F changed from open to closed
   
  WARNING: Pump 1A open but exceeds maximum flow at 6:11:46 hrs.
  
     6:36:48: Pump 2A changed by Tank A control
     6:36:48: Pump 6D changed by Tank D control
     6:36:48: Pipe v1E changed by Tank E control
     6:36:48: Balanced after 5 trials
     6:36:48: Tank A is filling at 2.36 ft
     6:36:48: Tank E is closed at 0.00 ft
     6:36:48: CV 1198 changed from open to closed
     6:36:48: CV 1216 changed from closed to open
     6:36:48: Pipe v1E changed from open to closed
     6:36:48: Pump 2A changed from closed to open
     6:36:48: Pump 6D changed from open to closed
   
  WARNING: Pump 3A open but exceeds maximum flow at 6:36:48 hrs.
  
     7:00:00: Pump 6D changed by Tank D control
     7:00:00: Pipe v1E changed by Tank E control
     7:00:00: Balanced after 17 trials
     7:00:00: Tank E is filling at 0.00 ft
     7:00:00: CV 1198 changed from closed to open
     7:00:00: CV 1216 changed from open to closed
     7:00:00: Pipe v1E changed from closed to open
     7:00:00: Pump 6D changed from closed to open
   
  WARNING: Pump 3A open but exceeds maximum flow at 7:00:00 hrs.
  
     8:00:00: Pump 6D changed by Tank D control
     8:00:00: Pipe v1E changed by Tank E control
     8:00:00: Balanced after 4 trials
     8:00:00: Tank E is closed at 0.00 ft
     8:00:00: CV 1198 changed from open to closed
     8:00:00: CV 1216 changed from closed to open
     8:00:00: Pipe v1E changed from open to closed
     8:00:00: Pump 6D changed from open to closed
   
  WARNING: Pump 3A open but exceeds maximum flow at 8:00:00 hrs.
  
     8:09:00: Pump 5C changed by Tank C control
     8:09:00: Pump 6D changed by Tank D control
     8:09:00: Pipe v1E changed by Tank E control
     8:09:00: Balanced after 17 trials
     8:09:00: Tank C is filling at 1.40 ft
     8:09:00: Tank E is filling at 0.00 ft
     8:09:00: CV 1198 changed from closed to open
     8:09:00: CV 1216 changed from open to closed
     8:09:00: Pipe v1E changed from closed to open
     8:09:00: Pump 5C changed from closed to open
     8:09:00: Pump 6D changed from closed to open
   
  WARNING: Pump 3A open but exceeds maximum flow at 8:09:00 hrs.
  
     8:39:31: Pump 5C changed by Tank C control
     8:39:31: Pump 6D changed by Tank D control
     8:39:31: Pipe v1E changed by Tank E control
     8:39:31: Balanced after 4 trials
     8:39:31: Tank C is emptying at 1.94 ft
     8:39:31: Tank E is closed at 0.00 ft
     8:39:31: CV 1198 changed from open to closed
     8:39:31: CV 1216 changed from closed to open
     8:39:31: Pipe v1E changed from open to closed
     8:39:31: Pump 5C changed from open to closed
     8:39:31: Pump 6D changed from open to closed
   
  WARNING: Pump 3A open but exceeds maximum flow at 8:39:31 hrs.
  
     8:40:11: Pump 1A changed by Tank A control
     8:40:11: Pump 2A changed by Tank A control
     8:40:11: Pump 3A changed by Tank A control
     8:40:11: Pump 6D changed by Tank D control
     8:40:11: Pipe v1E changed by Tank E control
     8:40:11: Balanced after 17 trials
     8:40:11: Tank A is emptying at 3.27 ft
     8:40:11: Tank E is filling at 0.00 ft
     8:40:11: CV 1198 changed from closed to open
     8:40:11: CV 1216 changed from open to closed
     8:40:11: Pipe v1E changed from closed to open
     8:40:11: CV 1845 changed from closed to open
     8:40:11: Pump 1A changed from open to closed
     8:40:11: Pump 2A changed from open to closed
     8:40:11: Pump 3A changed from open to closed
     8:40:11: Pump 6D changed from closed to open
   
     9:00:00: Pump 6D changed by Tank D control
     9:00:00: Pipe v1E changed by Tank E control
     9:00:00: Balanced after 5 trials
     9:00:00: Tank E is closed at 0.00 ft
     9:00:00: CV 1168 changed from closed to open
     9:00:00: CV 1198 changed from open to closed
     9:00:00: CV 1216 changed from closed to open
     9:00:00: Pipe v1E changed from open to closed
     9:00:00: Pump 6D changed from open to closed
   
     9:13:59: Pump 1A changed by Tank A control
     9:13:59: Pump 3A changed by Tank A control
     9:13:59: Pump 6D changed by Tank D control
     9:13:59: Pipe v1E changed by Tank E control
     9:13:59: Balanced after 17 trials
     9:13:59: Tank E is filling at 0.00 ft
     9:13:59: CV 1198 changed from closed to open
     9:13:59: CV 1216 changed from open to closed
     9:13:59: Pipe v1E changed from closed to open
     9:13:59: CV 1845 changed from open to closed
     9:13:59: Pump 1A changed from closed to open
     9:13:59: Pump 3A changed from closed to open
     9:13:59: Pump 6D changed from closed to open
   
  WARNING: Pump 1A open but exceeds maximum flow at 9:13:59 hrs.
  
     9:34:50: Pump 2A changed by Tank A control
     9:34:50: Pump 6D changed by Tank D control
     9:34:50: Pipe v1E changed by Tank E control
     9:34:50: Balanced after 6 trials
     9:34:50: Tank A is filling at 2.36 ft
     9:34:50: Tank E is closed at 0.00 ft
     9:34:50: CV 1198 changed from open to closed
     9:34:50: CV 1216 changed from closed to open
     9:34:50: Pipe v1E changed from open to closed
     9:34:50: Pump 2A changed from closed to open
     9:34:50: Pump 6D changed from open to closed
   
  WARNING: Pump 3A open but exceeds maximum flow at 9:34:50 hrs.
  
     9:47:00: Pump 5C changed by Tank C control
     9:47:00: Pump 6D changed by Tank D control
     9:47:00: Pipe v1E changed by Tank E control
     9:47:00: Balanced after 17 trials
     9:47:00: Tank C is filling at 1.40 ft
     9:47:00: Tank E is filling at 0.00 ft
     9:47:00: CV 1198 changed from closed to open
     9:47:00: CV 1216 changed from open to closed
     9:47:00: Pipe v1E changed from closed to open
     9:47:00: Pump 5C changed from closed to open
     9:47:00: Pump 6D changed from closed to open
   
  WARNING: Pump 3A open but exceeds maximum flow at 9:47:00 hrs.
  
    10:00:00: Pump 6D changed by Tank D control
    10:00:00: Pipe v1E changed by Tank E control
    10:00:00: Balanced after 4 trials
    10:00:00: Tank E is closed at 0.00 ft
    10:00:00: CV 1198 changed from open to closed
    10:00:00: CV 1216 changed from closed to open
    10:00:00: Pipe v1E changed from open to closed
    10:00:00: Pump 6D changed from open to closed
   
  WARNING: Pump 3A open but exceeds maximum flow at 10:00:00 hrs.
  
    10:21:27: Pump 5C changed by Tank C control
    10:21:27: Pump 6D changed by Tank D control
    10:21:27: Pipe v1E changed by Tank E control
    10:21:27: Balanced after 17 trials
    10:21:27: Tank C is emptying at 1.94 ft
    10:21:27: Tank E is filling at 0.00 ft
    10:21:27: CV 1198 changed from closed to open
    10:21:27: CV 1216 changed from open to closed
    10:21:27: Pipe v1E changed from closed to open
    10:21:27: Pump 5C changed from open to closed
    10:21:27: Pump 6D changed from closed to open
   
  WARNING: Pump 3A open but exceeds maximum flow at 10:21:27 hrs.
  
    11:00:00: Pump 6D changed by Tank D control
    11:00:00: Pipe v1E changed by Tank E control
    11:00:00: Balanced after 4 trials
    11:00:00: Tank E is closed at 0.00 ft
    11:00:00: CV 1198 changed from open to closed
    11:00:00: CV 1216 changed from closed to open
    11:00:00: Pipe v1E changed from open to closed
    11:00:00: Pump 6D changed from open to closed
   
  WARNING: Pump 3A open but exceeds maximum flow at 11:00:00 hrs.
  
    11:38:15: Pump 1A changed by Tank A control
    11:38:15: Pump 2A changed by Tank A control
    11:38:15: Pump 3A changed by Tank A control
    11:38:15: Pump 6D changed by Tank D control
    11:38:15: Pipe v1E changed by Tank E control
    11:38:15: Balanced after 17 trials
    11:38:15: Tank A is emptying at 3.27 ft
    11:38:15: Tank E is filling at 0.00 ft
    11:38:15: CV 1198 changed from closed to open
    11:38:15: CV 1216 changed from open to closed
    11:38:15: Pipe v1E changed from closed to open
    11:38:15: CV 1845 changed from closed to open
    11:38:15: Pump 1A changed from open to closed
    11:38:15: Pump 2A changed from open to closed
    11:38:15: Pump 3A changed from open to closed
    11:38:15: Pump 6D changed from closed to open
   
    11:40:09: Pump 5C changed by Tank C control
    11:40:09: Pump 6D changed by Tank D control
    11:40:09: Pipe v1E changed by Tank E control
    11:40:09: Balanced after 5 trials
    11:40:09: Tank C is filling at 1.40 ft
    11:40:09: Tank E is closed at 0.00 ft
    11:40:09: CV 1198 changed from open to closed
    11:40:09: CV 1216 changed from closed to open
    11:40:09: Pipe v1E changed from open to closed
    11:40:09: Pump 5C changed from closed to open
    11:40:09: Pump 6D changed from open to closed
   
    11:45:16: Pump 6D changed by Tank D control
    11:45:16: Pump 7F changed by Tank F control
    11:45:16: Pipe v1E changed by Tank E control
    11:45:16: Balanced after 17 trials
    11:45:16: Tank E is filling at 0.00 ft
    11:45:16: Tank F is filling at 1.53 ft
    11:45:16: CV 1198 changed from closed to open
    11:45:16: CV 1216 changed from open to closed
    11:45:16: Pipe v1E changed from closed to open
    11:45:16: CV 1795 changed from closed to open
    11:45:16: CV 1839 changed from closed to open
    11:45:16: CV 1973 changed from open to closed
    11:45:16: Pump 6D changed from closed to open
    11:45:16: Pump 7F changed from closed to open
   
  WARNING: Pump 7F open but exceeds maximum flow at 11:45:16 hrs.
  
    11:45:17: Pump 6D changed by Tank D control
    11:45:17: Pump 7F changed by Tank F control
    11:45:17: Pipe v1E changed by Tank E control
    11:45:17: Balanced after 6 trials
    11:45:17: Tank E is closed at 0.00 ft
    11:45:17: Tank F is closed at 2.19 ft
    11:45:17: CV 1198 changed from open to closed
    11:45:17: CV 1216 changed from closed to open
    11:45:17: Pipe v1E changed from open to closed
    11:45:17: CV 1795 changed from open to closed
    11:45:17: CV 1839 changed from open to closed
    11:45:17: CV 1973 changed from closed to open
    11:45:17: Pump 6D changed from open to closed
    11:45:17: Pump 7F changed from open to closed
   
    12:00:00: Pump 6D changed by Tank D control
    12:00:00: Pipe v1E changed by Tank E control
    12:00:00: Balanced after 17 trials
    12:00:00: Tank E is filling at 0.00 ft
    12:00:00: CV 1198 changed from closed to open
    12:00:00: CV 1216 changed from open to closed
    12:00:00: Pipe v1E changed from closed to open
    12:00:00: Pump 6D changed from closed to open
   
    12:10:04: Pump 5C changed by Tank C control
    12:10:04: Pump 6D changed by Tank D control
    12:10:04: Pipe v1E changed by Tank E control
    12:10:04: Balanced after 4 trials
    12:10:04: Tank C is emptying at 1.94 ft
    12:10:04: Tank E is closed at 0.00 ft
    12:10:04: CV 1198 changed from open to closed
    12:10:04: CV 1216 changed from closed to open
    12:10:04: Pipe v1E changed from open to closed
    12:10:04: Pump 5C changed from open to closed
    12:10:04: Pump 6D changed from open to closed
   
    12:12:04: Pump 1A changed by Tank A control
    12:12:04: Pump 3A changed by Tank A control
    12:12:04: Pump 6D changed by Tank D control
    12:12:04: Pipe v1E changed by Tank E control
    12:12:04: Balanced after 17 trials
    12:12:04: Tank E is filling at 0.00 ft
    12:12:04: CV 1198 changed from closed to open
    12:12:04: CV 1216 changed from open to closed
    12:12:04: Pipe v1E changed from closed to open
    12:12:04: CV 1845 changed from open to closed
    12:12:04: Pump 1A changed from closed to open
    12:12:04: Pump 3A changed from closed to open
    12:12:04: Pump 6D changed from closed to open
   
  WARNING: Pump 1A open but exceeds maximum flow at 12:12:04 hrs.
  
    12:35:55: Pump 2A changed by Tank A control
    12:35:55: Pump 6D changed by Tank D control
    12:35:55: Pipe v1E changed by Tank E control
    12:35:55: Balanced after 5 trials
    12:35:55: Tank A is filling at 2.36 ft
    12:35:55: Tank E is closed at 0.00 ft
    12:35:55: CV 1198 changed from open to closed
    12:35:55: CV 1216 changed from closed to open
    12:35:55: Pipe v1E changed from open to closed
    12:35:55: Pump 2A changed from closed to open
    12:35:55: Pump 6D changed from open to closed
   
  WARNING: Pump 3A open but exceeds maximum flow at 12:35:55 hrs.
  
    13:00:00: Pump 6D changed by Tank D control
    13:00:00: Pipe v1E changed by Tank E control
    13:00:00: Balanced after 17 trials
    13:00:00: Tank E is filling at 0.00 ft
    13:00:00: CV 1198 changed from closed to open
    13:00:00: CV 1216 changed from open to closed
    13:00:00: Pipe v1E changed from closed to open
    13:00:00: Pump 6D changed from closed to open
   
  WARNING: Pump 3A open but exceeds maximum flow at 13:00:00 hrs.
  
    14:00:00: Pump 6D changed by Tank D control
    14:00:00: Pipe v1E changed by Tank E control
    14:00:00: Balanced after 4 trials
    14:00:00: Tank E is closed at 0.00 ft
    14:00:00: CV 1198 changed from open to closed
    14:00:00: CV 1216 changed from closed to open
    14:00:00: Pipe v1E changed from open to closed
    14:00:00: Pump 6D changed from open to closed
   
  WARNING: Pump 3A open but exceeds maximum flow at 14:00:00 hrs.
  
    14:18:44: Pump 5C changed by Tank C control
    14:18:44: Pump 6D changed by Tank D control
    14:18:44: Pipe v1E changed by Tank E control
    14:18:44: Balanced after 17 trials
    14:18:44: Tank C is filling at 1.40 ft
    14:18:44: Tank E is filling at 0.00 ft
    14:18:44: CV 1198 changed from closed to open
    14:18:44: CV 1216 changed from open to closed
    14:18:44: Pipe v1E changed from closed to open
    14:18:44: Pump 5C changed from closed to open
    14:18:44: Pump 6D changed from closed to open
   
  WARNING: Pump 3A open but exceeds maximum flow at 14:18:44 hrs.
  
    14:29:55: Pump 1A changed by Tank A control
    14:29:55: Pump 2A changed by Tank A control
    14:29:55: Pump 3A changed by Tank A control
    14:29:55: Pump 6D changed by Tank D control
    14:29:55: Pipe v1E changed by Tank E control
    14:29:55: Balanced after 4 trials
    14:29:55: Tank A is emptying at 3.27 ft
    14:29:55: Tank E is closed at 0.00 ft
    14:29:55: CV 1198 changed from open to closed
    14:29:55: CV 1216 changed from closed to open
    14:29:55: Pipe v1E changed from open to closed
    14:29:55: CV 1845 changed from closed to open
    14:29:55: Pump 1A changed from open to closed
    14:29:55: Pump 2A changed from open to closed
    14:29:55: Pump 3A changed from open to closed
    14:29:55: Pump 6D changed from open to closed
   
    14:48:04: Pump 5C changed by Tank C control
    14:48:04: Pump 6D changed by Tank D control
    14:48:04: Pipe v1E changed by Tank E control
    14:48:04: Balanced after 17 trials
    14:48:04: Tank C is emptying at 1.94 ft
    14:48:04: Tank E is filling at 0.00 ft
    14:48:04: CV 1198 changed from closed to open
    14:48:04: CV 1216 changed from open to closed
    14:48:04: Pipe v1E changed from closed to open
    14:48:04: Pump 5C changed from open to closed
    14:48:04: Pump 6D changed from closed to open
   
    15:00:00: Pump 6D changed by Tank D control
    15:00:00: Pipe v1E changed by Tank E control
    15:00:00: Balanced after 4 trials
    15:00:00: Tank E is closed at 0.00 ft
    15:00:00: CV 1198 changed from open to closed
    15:00:00: CV 1216 changed from closed to open
    15:00:00: Pipe v1E changed from open to closed
    15:00:00: Pump 6D changed from open to closed
   
    15:05:57: Pump 1A changed by Tank A control
    15:05:57: Pump 3A changed by Tank A control
    15:05:57: Pump 6D changed by Tank D control
    15:05:57: Pipe v1E changed by Tank E control
    15:05:57: Balanced after 17 trials
    15:05:57: Tank E is filling at 0.00 ft
    15:05:57: CV 1198 changed from closed to open
    15:05:57: CV 1216 changed from open to closed
    15:05:57: Pipe v1E changed from closed to open
    15:05:57: CV 1845 changed from open to closed
    15:05:57: Pump 1A changed from closed to open
    15:05:57: Pump 3A changed from closed to open
    15:05:57: Pump 6D changed from closed to open
   
  WARNING: Pump 1A open but exceeds maximum flow at 15:05:57 hrs.
  
    15:32:12: Pump 2A changed by Tank A control
    15:32:12: Pump 6D changed by Tank D control
    15:32:12: Pipe v1E changed by Tank E control
    15:32:12: Balanced after 5 trials
    15:32:12: Tank A is filling at 2.36 ft
    15:32:12: Tank E is closed at 0.00 ft
    15:32:12: CV 1198 changed from open to closed
    15:32:12: CV 1216 changed from closed to open
    15:32:12: Pipe v1E changed from open to closed
    15:32:12: Pump 2A changed from closed to open
    15:32:12: Pump 6D changed from open to closed
   
  WARNING: Pump 3A open but exceeds maximum flow at 15:32:12 hrs.
  
    16:00:00: Pump 6D changed by Tank D control
    16:00:00: Pipe v1E changed by Tank E control
    16:00:00: Balanced after 17 trials
    16:00:00: Tank E is filling at 0.00 ft
    16:00:00: CV 1198 changed from closed to open
    16:00:00: CV 1216 changed from open to closed
    16:00:00: Pipe v1E changed from closed to open
    16:00:00: Pump 6D changed from closed to open
   
  WARNING: Pump 3A open but exceeds maximum flow at 16:00:00 hrs.
  
    16:50:06: Pump 5C changed by Tank C control
    16:50:06: Pump 6D changed by Tank D control
    16:50:06: Pipe v1E changed by Tank E control
    16:50:06: Balanced after 5 trials
    16:50:06: Tank C is filling at 1.40 ft
    16:50:06: Tank E is closed at 0.00 ft
    16:50:06: CV 1198 changed from open to closed
    16:50:06: CV 1216 changed from closed to open
    16:50:06: Pipe v1E changed from open to closed
    16:50:06: Pump 5C changed from closed to open
    16:50:06: Pump 6D changed from open to closed
   
  WARNING: Pump 3A open but exceeds maximum flow at 16:50:06 hrs.
  
    17:00:00: Pump 6D changed by Tank D control
    17:00:00: Pipe v1E changed by Tank E control
    17:00:00: Balanced after 17 trials
    17:00:00: Tank E is filling at 0.00 ft
    17:00:00: CV 1198 changed from closed to open
    17:00:00: CV 1216 changed from open to closed
    17:00:00: Pipe v1E changed from closed to open
    17:00:00: Pump 6D changed from closed to open
   
  WARNING: Pump 3A open but exceeds maximum flow at 17:00:00 hrs.
  
    17:21:39: Pump 5C changed by Tank C control
    17:21:39: Pump 6D changed by Tank D control
    17:21:39: Pipe v1E changed by Tank E control
    17:21:39: Balanced after 4 trials
    17:21:39: Tank C is emptying at 1.94 ft
    17:21:39: Tank E is closed at 0.00 ft
    17:21:39: CV 1198 changed from open to closed
    17:21:39: CV 1216 changed from closed to open
    17:21:39: Pipe v1E changed from open to closed
    17:21:39: Pump 5C changed from open to closed
    17:21:39: Pump 6D changed from open to closed
   
  WARNING: Pump 3A open but exceeds maximum flow at 17:21:39 hrs.
  
    17:28:47: Pump 1A changed by Tank A control
    17:28:47: Pump 2A changed by Tank A control
    17:28:47: Pump 3A changed by Tank A control
    17:28:47: Pump 6D changed by Tank D control
    17:28:47: Pipe v1E changed by Tank E control
    17:28:47: Balanced after 17 trials
    17:28:47: Tank A is emptying at 3.27 ft
    17:28:47: Tank E is filling at 0.00 ft
    17:28:47: CV 1198 changed from closed to open
    17:28:47: CV 1216 changed from open to closed
    17:28:47: Pipe v1E changed from closed to open
    17:28:47: CV 1845 changed from closed to open
    17:28:47: Pump 1A changed from open to closed
    17:28:47: Pump 2A changed from open to closed
    17:28:47: Pump 3A changed from open to closed
    17:28:47: Pump 6D changed from closed to open
   
    18:00:00: Pump 6D changed by Tank D control
    18:00:00: Pipe v1E changed by Tank E control
    18:00:00: Balanced after 4 trials
    18:00:00: Tank E is closed at 0.00 ft
    18:00:00: CV 1198 changed from open to closed
    18:00:00: CV 1216 changed from closed to open
    18:00:00: Pipe v1E changed from open to closed
    18:00:00: Pump 6D changed from open to closed
   
    18:01:57: Pump 1A changed by Tank A control
    18:01:57: Pump 3A changed by Tank A control
    18:01:57: Pump 6D changed by Tank D control
    18:01:57: Pipe v1E changed by Tank E control
    18:01:57: Balanced after 17 trials
    18:01:57: Tank E is filling at 0.00 ft
    18:01:57: CV 1198 changed from closed to open
    18:01:57: CV 1216 changed from open to closed
    18:01:57: Pipe v1E changed from closed to open
    18:01:57: CV 1845 changed from open to closed
    18:01:57: Pump 1A changed from closed to open
    18:01:57: Pump 3A changed from closed to open
    18:01:57: Pump 6D changed from closed to open
   
  WARNING: Pump 1A open but exceeds maximum flow at 18:01:57 hrs.
  
    18:25:18: Pump 2A changed by Tank A control
    18:25:18: Pump 6D changed by Tank D control
    18:25:18: Pipe v1E changed by Tank E control
    18:25:18: Balanced after 5 trials
    18:25:18: Tank A is filling at 2.36 ft
    18:25:18: Tank E is closed at 0.00 ft
    18:25:18: CV 1168 changed from open to closed
    18:25:18: CV 1198 changed from open to closed
    18:25:18: CV 1216 changed from closed to open
    18:25:18: Pipe v1E changed from open to closed
    18:25:18: Pump 2A changed from closed to open
    18:25:18: Pump 6D changed from open to closed
   
  WARNING: Pump 3A open but exceeds maximum flow at 18:25:18 hrs.
  
    18:40:47: Pump 5C changed by Tank C control
    18:40:47: Pump 6D changed by Tank D control
    18:40:47: Pipe v1E changed by Tank E control
    18:40:47: Balanced after 17 trials
    18:40:47: Tank C is filling at 1.40 ft
    18:40:47: Tank E is filling at 0.00 ft
    18:40:47: CV 1198 changed from closed to open
    18:40:47: CV 1216 changed from open to closed
    18:40:47: Pipe v1E changed from closed to open
    18:40:47: Pump 5C changed from closed to open
    18:40:47: Pump 6D changed from closed to open
   
  WARNING: Pump 3A open but exceeds maximum flow at 18:40:47 hrs.
  
    18:42:02: Pump 6D changed by Tank D control
    18:42:02: Pump 7F changed by Tank F control
    18:42:02: Pipe v1E changed by Tank E control
    18:42:02: Balanced after 14 trials
    18:42:02: Tank E is emptying at 0.00 ft
    18:42:02: Tank F is filling at 1.53 ft
    18:42:02: CV 1198 changed from open to closed
    18:42:02: CV 1216 changed from closed to open
    18:42:02: Pipe v1E changed from open to closed
    18:42:02: CV 1795 changed from closed to open
    18:42:02: CV 1839 changed from closed to open
    18:42:02: CV 1973 changed from open to closed
    18:42:02: Pump 6D changed from open to closed
    18:42:02: Pump 7F changed from closed to open
   
  WARNING: Pump 3A open but exceeds maximum flow at 18:42:02 hrs.
  WARNING: Pump 7F open but exceeds maximum flow at 18:42:02 hrs.
  
    18:42:03: Pump 6D changed by Tank D control
    18:42:03: Pump 7F changed by Tank F control
    18:42:03: Pipe v1E changed by Tank E control
    18:42:03: Balanced after 11 trials
    18:42:03: Tank E is filling at 0.00 ft
    18:42:03: Tank F is closed at 2.19 ft
    18:42:03: CV 1198 changed from closed to open
    18:42:03: CV 1216 changed from open to closed
    18:42:03: Pipe v1E changed from closed to open
    18:42:03: CV 1795 changed from open to closed
    18:42:03: CV 1839 changed from open to closed
    18:42:03: CV 1973 changed from closed to open
    18:42:03: Pump 6D changed from closed to open
    18:42:03: Pump 7F changed from open to closed
   
  WARNING: Pump 3A open but exceeds maximum flow at 18:42:03 hrs.
  
    19:00:00: Pump 6D changed by Tank D control
    19:00:00: Pipe v1E changed by Tank E control
    19:00:00: Balanced after 5 trials
    19:00:00: Tank E is closed at 0.00 ft
    19:00:00: CV 1168 changed from closed to open
    19:00:00: CV 1198 changed from open to closed
    19:00:00: CV 1216 changed from closed to open
    19:00:00: Pipe v1E changed from open to closed
    19:00:00: Pump 6D changed from open to closed
   
  WARNING: Pump 3A open but exceeds maximum flow at 19:00:00 hrs.
  
    19:11:46: Pump 5C changed by Tank C control
    19:11:46: Pump 6D changed by Tank D control
    19:11:46: Pipe v1E changed by Tank E control
    19:11:46: Balanced after 17 trials
    19:11:46: Tank C is emptying at 1.94 ft
    19:11:46: Tank E is filling at 0.00 ft
    19:11:46: CV 1198 changed from closed to open
    19:11:46: CV 1216 changed from open to closed
    19:11:46: Pipe v1E changed from closed to open
    19:11:46: Pump 5C changed from open to closed
    19:11:46: Pump 6D changed from closed to open
   
  WARNING: Pump 3A open but exceeds maximum flow at 19:11:46 hrs.
  
    20:00:00: Pump 6D changed by Tank D control
    20:00:00: Pipe v1E changed by Tank E control
    20:00:00: Balanced after 4 trials
    20:00:00: Tank E is closed at 0.00 ft
    20:00:00: CV 1198 changed from open to closed
    20:00:00: CV 1216 changed from closed to open
    20:00:00: Pipe v1E changed from open to closed
    20:00:00: Pump 6D changed from open to closed
   
  WARNING: Pump 3A open but exceeds maximum flow at 20:00:00 hrs.
  
    20:26:35: Pump 1A changed by Tank A control
    20:26:35: Pump 2A changed by Tank A control
    20:26:35: Pump 3A changed by Tank A control
    20:26:35: Pump 6D changed by Tank D control
    20:26:35: Pipe v1E changed by Tank E control
    20:26:35: Balanced after 17 trials
    20:26:35: Tank A is emptying at 3.27 ft
    20:26:35: Tank E is filling at 0.00 ft
    20:26:35: CV 1198 changed from closed to open
    20:26:35: CV 1216 changed from open to closed
    20:26:35: Pipe v1E changed from closed to open
    20:26:35: CV 1845 changed from closed to open
    20:26:35: Pump 1A changed from open to closed
    20:26:35: Pump 2A changed from open to closed
    20:26:35: Pump 3A changed from open to closed
    20:26:35: Pump 6D changed from closed to open
   
    20:42:09: Pump 5C changed by Tank C control
    20:42:09: Pump 6D changed by Tank D control
    20:42:09: Pipe v1E changed by Tank E control
    20:42:09: Balanced after 5 trials
    20:42:09: Tank C is filling at 1.40 ft
    20:42:09: Tank E is closed at 0.00 ft
    20:42:09: CV 1168 changed from open to closed
    20:42:09: CV 1198 changed from open to closed
    20:42:09: CV 1216 changed from closed to open
    20:42:09: Pipe v1E changed from open to closed
    20:42:09: Pump 5C changed from closed to open
    20:42:09: Pump 6D changed from open to closed
   
    21:00:00: Pump 6D changed by Tank D control
    21:00:00: Pipe v1E changed by Tank E control
    21:00:00: Balanced after 17 trials
    21:00:00: Tank E is filling at 0.00 ft
    21:00:00: CV 1198 changed from closed to open
    21:00:00: CV 1216 changed from open to closed
    21:00:00: Pipe v1E changed from closed to open
    21:00:00: Pump 6D changed from closed to open
   
    21:01:08: Pump 1A changed by Tank A control
    21:01:08: Pump 3A changed by Tank A control
    21:01:08: Pump 6D changed by Tank D control
    21:01:08: Pipe v1E changed by Tank E control
    21:01:08: Balanced after 11 trials
    21:01:08: Tank E is closed at 0.00 ft
    21:01:08: CV 1198 changed from open to closed
    21:01:08: CV 1216 changed from closed to open
    21:01:08: Pipe v1E changed from open to closed
    21:01:08: CV 1845 changed from open to closed
    21:01:08: Pump 1A changed from closed to open
    21:01:08: Pump 3A changed from closed to open
    21:01:08: Pump 6D changed from open to closed
   
  WARNING: Pump 1A open but exceeds maximum flow at 21:01:08 hrs.
  
    21:11:56: Pump 5C changed by Tank C control
    21:11:56: Pump 6D changed by Tank D control
    21:11:56: Pipe v1E changed by Tank E control
    21:11:56: Balanced after 17 trials
    21:11:56: Tank C is emptying at 1.94 ft
    21:11:56: Tank E is filling at 0.00 ft
    21:11:56: CV 1198 changed from closed to open
    21:11:56: CV 1216 changed from open to closed
    21:11:56: Pipe v1E changed from closed to open
    21:11:56: Pump 5C changed from open to closed
    21:11:56: Pump 6D changed from closed to open
   
  WARNING: Pump 1A open but exceeds maximum flow at 21:11:56 hrs.
  
    21:27:35: Pump 2A changed by Tank A control
    21:27:35: Pump 6D changed by Tank D control
    21:27:35: Pipe v1E changed by Tank E control
    21:27:35: Balanced after 5 trials
    21:27:35: Tank A is filling at 2.36 ft
    21:27:35: Tank E is closed at 0.00 ft
    21:27:35: CV 1198 changed from open to closed
    21:27:35: CV 1216 changed from closed to open
    21:27:35: Pipe v1E changed from open to closed
    21:27:35: Pump 2A changed from closed to open
    21:27:35: Pump 6D changed from open to closed
   
  WARNING: Pump 3A open but exceeds maximum flow at 21:27:35 hrs.
  
    22:00:00: Pump 6D changed by Tank D control
    22:00:00: Pipe v1E changed by Tank E control
    22:00:00: Balanced after 17 trials
    22:00:00: Tank E is filling at 0.00 ft
    22:00:00: CV 1198 changed from closed to open
    22:00:00: CV 1216 changed from open to closed
    22:00:00: Pipe v1E changed from closed to open
    22:00:00: Pump 6D changed from closed to open
   
  WARNING: Pump 3A open but exceeds maximum flow at 22:00:00 hrs.
  
    23:00:00: Pump 6D changed by Tank D control
    23:00:00: Pipe v1E changed by Tank E control
    23:00:00: Balanced after 5 trials
    23:00:00: Tank E is closed at 0.00 ft
    23:00:00: CV 1168 changed from closed to open
    23:00:00: CV 1198 changed from open to closed
    23:00:00: CV 1216 changed from closed to open
    23:00:00: Pipe v1E changed from open to closed
    23:00:00: Pump 6D changed from open to closed
   
  WARNING: Pump 3A open but exceeds maximum flow at 23:00:00 hrs.
  
    23:16:52: Pump 1A changed by Tank A control
    23:16:52: Pump 2A changed by Tank A control
    23:16:52: Pump 3A changed by Tank A control
    23:16:52: Pump 6D changed by Tank D control
    23:16:52: Pipe v1E changed by Tank E control
    23:16:52: Balanced after 17 trials
    23:16:52: Tank A is emptying at 3.27 ft
    23:16:52: Tank E is filling at 0.00 ft
    23:16:52: CV 1198 changed from closed to open
    23:16:52: CV 1216 changed from open to closed
    23:16:52: Pipe v1E changed from closed to open
    23:16:52: CV 1845 changed from closed to open
    23:16:52: Pump 1A changed from open to closed
    23:16:52: Pump 2A changed from open to closed
    23:16:52: Pump 3A changed from open to closed
    23:16:52: Pump 6D changed from closed to open
   
    23:51:08: Pump 1A changed by Tank A control
    23:51:08: Pump 3A changed by Tank A control
    23:51:08: Pump 6D changed by Tank D control
    23:51:08: Pipe v1E changed by Tank E control
    23:51:08: Balanced after 11 trials
    23:51:08: Tank E is closed at 0.00 ft
    23:51:08: CV 1198 changed from open to closed
    23:51:08: CV 1216 changed from closed to open
    23:51:08: Pipe v1E changed from open to closed
    23:51:08: CV 1845 changed from open to closed
    23:51:08: Pump 1A changed from closed to open
    23:51:08: Pump 3A changed from closed to open
    23:51:08: Pump 6D changed from open to closed
   
  WARNING: Pump 1A open but exceeds maximum flow at 23:51:08 hrs.
  
    23:52:21: Pump 5C changed by Tank C control
    23:52:21: Pump 6D changed by Tank D control
    23:52:21: Pipe v1E changed by Tank E control
    23:52:21: Balanced after 17 trials
    23:52:21: Tank C is filling at 1.40 ft
    23:52:21: Tank E is filling at 0.00 ft
    23:52:21: CV 1198 changed from closed to open
    23:52:21: CV 1216 changed from open to closed
    23:52:21: Pipe v1E changed from closed to open
    23:52:21: Pump 5C changed from closed to open
    23:52:21: Pump 6D changed from closed to open
   
  WARNING: Pump 1A open but exceeds maximum flow at 23:52:21 hrs.
  
    24:00:00: Pump 6D changed by Tank D control
    24:00:00: Pipe v1E changed by Tank E control
    24:00:00: Balanced after 4 trials
    24:00:00: Tank E is closed at 0.00 ft
    24:00:00: CV 1198 changed from open to closed
    24:00:00: CV 1216 changed from closed to open
    24:00:00: Pipe v1E changed from open to closed
    24:00:00: Pump 6D changed from open to closed
   
  WARNING: Pump 1A open but exceeds maximum flow at 24:00:00 hrs.
  
   
  Node Results at 0:00:00 hrs:
  --------------------------------------------------------
                     Demand      Head  Pressure  Chemical
  Node                  gpm        ft       psi      mg/L
  --------------------------------------------------------
  1                    0.00     70.33      0.58      0.00
  2                    0.00    187.25      1.84      0.00
  3                    0.00    187.25      1.48      0.00
  4                    0.00    187.25      1.84      0.00
  5                    0.00    187.25      1.84      0.00
  6                    0.00    187.25      0.54      0.00
  7                    0.00    187.25      1.84      0.00
  8                    0.00    187.25      1.84      0.00
  9                    0.18     70.33      0.64      0.00
  10                   0.00    187.25      9.01      0.00
  11                   0.00    187.25      8.98      0.00
  12                   0.00    187.25     14.38      0.00
  13                   0.00    187.25     14.38      0.00
  14                   0.00    187.25     17.84      0.00
  15                   0.06    187.25     21.94      0.00
  16                   0.00    187.25     26.49      0.00
  17                   0.00    187.25     26.49      0.00
  18                   0.00    187.25     26.49      0.00
  19                   0.00    187.25     23.89      0.00
  20                   0.33     70.33      2.74      0.00
  21                   0.04    187.25     23.89      0.00
  22                   0.03    187.25     23.81      0.00
  23                   0.05    187.25     21.30      0.00
  24                   0.09    187.25     20.86      0.00
  25                   0.06    187.25     21.73      0.00
  26                   0.07    187.25     21.73      0.00
  27                   0.16    187.25     19.57      0.00
  28                   0.19    187.25     20.86      0.00
  29                   0.07    187.25     21.73      0.00
  30                   0.06    187.25     20.43      0.00
  31                   0.15     70.33      2.74      0.00
  32                   0.03    187.25     20.00      0.00
  33                   0.02    187.25     19.71      0.00
  34                   0.03    187.25     20.00      0.00
  35                   0.02    187.25     19.57      0.00
  36                   0.03    187.25     18.70      0.00
  37                   0.06    187.25     18.27      0.00
  38                   0.00    187.25     18.27      0.00
  39                   0.03    187.25     18.70      0.00
  40                   0.03    187.25     18.27      0.00
  41                   0.02    187.25     18.70      0.00
  42                   0.01     70.33      2.74      0.00
  43                   0.00    187.25     18.27      0.00
  44                   0.00    187.25     28.22      0.00
  45                   0.03    187.25     33.41      0.00
  46                   0.00    187.25     34.27      0.00
  47                   0.00    187.25     34.70      0.00
  48                   0.02    187.25     34.70      0.00
  49                   0.00    187.25     34.27      0.00
  50                   0.00    187.25     34.70      0.00
  51                   0.19    187.25     34.70      0.00
  52                   0.00    187.25     35.16      0.00
  53                   0.00     70.33      2.74      0.00
  54                   0.00    187.25     34.70      0.00
  55                   0.00    187.25     33.84      0.00
  56                   0.00    187.25     42.49      0.00
  57                   0.03    187.25     43.78      0.00
  58                   0.02    187.25     17.84      0.00
  59                   0.00    187.25     17.84      0.00
  60                   0.07    187.25     16.11      0.00
  61                   0.03    187.25     15.68      0.00
  62                   0.07    187.25     15.30      0.00
  63                   0.03    187.25     14.38      0.00
  64                   0.10     70.33      2.74      0.00
  65                   0.02    187.25     15.24      0.00
  66                   0.00    187.25     13.95      0.00
  67                   0.02    187.25     13.51      0.00
  68                   0.00    187.25     13.51      0.00
  69                   0.13    187.25     13.95      0.00
  70                   0.00    187.25     15.24      0.00
  71                   0.12    187.25     16.11      0.00
  72                   0.04    187.25     14.81      0.00
  73                   0.17    187.25     16.11      0.00
  74                   0.22    187.25     17.85      0.00
  75                   0.00     70.33      2.74      0.00
  76                   0.03    187.25     17.41      0.00
  77                   0.04    187.25     17.41      0.00
  78                   0.11    187.25     20.43      0.00
  79                   0.17    187.25     24.76      0.00
  80                   0.10    187.25     26.51      0.00
  81                   0.08    187.25     25.19      0.00
  82                   0.00    187.25     28.65      0.00
  83                   0.17    187.25     26.40      0.00
  84                   0.04    187.25     23.89      0.00
  85                   0.03    187.25     36.86      0.00
  86                   0.11     70.33      2.74      0.00
  87                   0.07    187.25     32.11      0.00
  88                   0.00    187.25     38.59      0.00
  89                   0.04    187.25     38.59      0.00
  90                   0.05    187.25     39.35      0.00
  91                   0.00    187.25     38.59      0.00
  92                   0.00    187.25     38.59      0.00
  93                   0.00    187.25     38.59      0.00
  94                   0.04    187.25     38.59      0.00
  95                   0.03    187.25     35.57      0.00
  96                   0.00    187.25     33.41      0.00
  97                   0.30     70.33      3.17      0.00
  98                   0.04    187.25     31.24      0.00
  99                   0.12    187.25     33.41      0.00
  100                  0.00    187.25     31.24      0.00
  101                  0.03    187.25     32.54      0.00
  102                  0.08    187.25     32.93      0.00
  103                  0.05    187.25     38.59      0.00
  104                  0.00    187.25      1.41      0.00
  105                  0.00    187.25      4.43      0.00
  106                  0.00    187.25      4.86      0.00
  107                  0.03    187.25     15.24      0.00
  108                  0.02    187.25     15.74      0.00
  109                  0.01     70.33      3.17      0.00
  110                  0.01    187.25     15.68      0.00
  111                  0.04    187.25     22.14      0.00
  112                  0.07    187.25     22.16      0.00
  113                  0.06    187.25     23.03      0.00
  114                  0.17    187.25     23.03      0.00
  115                  0.01    187.25     22.59      0.00
  116                  0.03    187.25     22.59      0.00
  117                  0.02    187.25     20.43      0.00
  118                  0.03    187.25     23.46      0.00
  119                  0.01    187.25     23.89      0.00
  120                  0.28     70.33      8.79      0.00
  121                  0.02    187.25     24.32      0.00
  122                  0.00    187.25     24.32      0.00
  123                  0.05    187.25     24.76      0.00
  124                  0.21    187.25     24.76      0.00
  125                  0.01    187.25     23.83      0.00
  126                  0.02    187.25     23.03      0.00
  127                  0.05    187.25     22.59      0.00
  128                  0.00    187.25     18.70      0.00
  129                  0.00    187.25     18.70      0.00
  130                  0.02    187.25     19.14      0.00
  131                  0.44     70.33      8.79      0.00
  132                  0.02    187.25     21.14      0.00
  133                  0.08    187.25     18.73      0.00
  134                  0.03    187.25     16.97      0.00
  135                  0.09    187.25     17.41      0.00
  136                  0.04    187.25     20.43      0.00
  137                  0.01    187.25     20.43      0.00
  138                  0.07    187.25     19.06      0.00
  139                  0.07    187.25     18.70      0.00
  140                  0.04    187.25     17.41      0.00
  141                  0.00    187.25     17.41      0.00
  142                  0.01     70.33      8.79      0.00
  143                  0.07    187.25     22.49      0.00
  144                  0.06    187.25     16.97      0.00
  145                  0.01    187.25     16.54      0.00
  146                  0.03    187.25     16.97      0.00
  147                  0.01    187.25     26.05      0.00
  148                  0.00    187.25     26.05      0.00
  149                  0.03    187.25     26.49      0.00
  150                  0.06    187.25     26.05      0.00
  151                  0.09    187.25     22.59      0.00
  152                  0.06    187.25     27.17      0.00
  153                  0.53     70.33      8.79      0.00
  154                  0.08    187.25     22.16      0.00
  155                  0.02    187.25     26.92      0.00
  156                  0.00    187.25     26.92      0.00
  157                  0.03    187.25     26.49      0.00
  158                  0.02    187.25     26.05      0.00
  159                  0.00    187.25     26.49      0.00
  160                  0.06    187.25     25.62      0.00
  161                  0.08    187.25     23.46      0.00
  162                  0.06    187.25     22.16      0.00
  163                  0.03    187.25     23.46      0.00
  164                  0.12     70.33      8.79      0.00
  165                  0.05    187.25     26.49      0.00
  166                  0.03    187.25     26.49      0.00
  167                  0.06    187.25     24.76      0.00
  168                  0.01    187.25     25.62      0.00
  169                  0.01    187.25     25.19      0.00
  170                  0.08    187.25     16.97      0.00
  171                  0.09    187.25     20.65      0.00
  172                  0.09    187.25     23.89      0.00
  173                  0.05    187.25     26.49      0.00
  174                  0.05    187.25     31.24      0.00
  175                  0.01     70.33      8.79      0.00
  176                  0.06    187.25     33.84      0.00
  177                  0.11    187.25     26.05      0.00
  178                  0.10    187.25     21.73      0.00
  179                  0.00    187.25     22.16      0.00
  180                  0.04    187.25     22.59      0.00
  181                  0.05    187.25     24.63      0.00
  182                  0.08    187.25     26.49      0.00
  183                  0.08    187.25     29.08      0.00
  184                  0.00    187.25     29.08      0.00
  185                  0.07    187.25     30.81      0.00
  186                  0.01    187.25     32.46      0.00
  187                  0.01    187.25     28.22      0.00
  188                  0.05    187.25     26.92      0.00
  189                  0.16    187.25     28.65      0.00
  190                  0.00    187.25     34.27      0.00
  191                  0.03    187.25     33.84      0.00
  192                  0.05    187.25     35.68      0.00
  193                  0.05    187.25     23.03      0.00
  194                  0.01    187.25     22.59      0.00
  195                  0.02    187.25     24.32      0.00
  196                  0.00    187.25     23.03      0.00
  197                  0.16    187.25     31.24      0.00
  198                  0.01    187.25     21.73      0.00
  199                  0.04    187.25     23.03      0.00
  200                  0.03    187.25     22.16      0.00
  201                  0.05    187.25     23.03      0.00
  202                  0.00    187.25     23.03      0.00
  203                  0.09    187.25     22.16      0.00
  204                  0.03    187.25     22.16      0.00
  205                  0.01    187.25     22.59      0.00
  206                  0.08    187.25     22.60      0.00
  207                  0.07    187.25     22.59      0.00
  208                  0.32    187.25     21.63      0.00
  209                  0.04    187.25     22.59      0.00
  210                  0.04    187.25     24.76      0.00
  211                  0.03    187.25     26.92      0.00
  212                  0.03    187.25     26.92      0.00
  213                  0.04    187.25     27.35      0.00
  214                  0.02    187.25     31.24      0.00
  215                  0.08    187.25     21.73      0.00
  216                  0.08    187.25     21.73      0.00
  217                  0.04    187.25     22.16      0.00
  218                  0.07    187.25     23.03      0.00
  219                  0.36    187.25     13.66      0.00
  220                  0.09    187.25     21.73      0.00
  221                  0.03    187.25     24.32      0.00
  222                  0.02    187.25     20.43      0.00
  223                  0.03    187.25     21.30      0.00
  224                  0.07    187.25     19.55      0.00
  225                  0.01    187.25     25.62      0.00
  226                  0.03    187.25     25.19      0.00
  227                  0.00    187.25     31.24      0.00
  228                  0.03    187.25     31.30      0.00
  229                  0.03    187.25     29.51      0.00
  230                  0.20    187.25      5.30      0.00
  231                  0.01    187.25     32.54      0.00
  232                  0.00    187.25     34.70      0.00
  233                  0.07    187.25     36.51      0.00
  234                  0.12    187.25     27.78      0.00
  235                  0.03    187.25     28.86      0.00
  236                  0.06    187.25     30.38      0.00
  237                  0.02    187.25     30.81      0.00
  238                  0.09    187.25     32.54      0.00
  239                  0.07    187.25     36.43      0.00
  240                  0.06    187.25     36.43      0.00
  241                  0.00    187.25      5.30      0.00
  242                  0.03    187.25     36.86      0.00
  243                  0.00    187.25     34.70      0.00
  244                  0.00    187.25     34.70      0.00
  245                  0.03    187.25     36.86      0.00
  246                  0.01    187.25     37.73      0.00
  247                  0.03    187.25     37.30      0.00
  248                  0.01    187.25     37.73      0.00
  249                  0.01    187.25     37.30      0.00
  250                  0.00    187.25     36.43      0.00
  251                  0.00    187.25      5.30      0.00
  252                  0.00    187.25     37.30      0.00
  253                  0.00    187.25     36.00      0.00
  254                  0.00    187.25     36.00      0.00
  255                  0.05    187.25     33.84      0.00
  256                  0.10    187.25     31.23      0.00
  257                  0.00    187.25     20.43      0.00
  258                  0.00    187.25     20.43      0.00
  259                  0.02    187.25     20.30      0.00
  260                  0.00    187.25      5.30      0.00
  261                  0.01    187.25     19.14      0.00
  262                  0.00    187.25     19.14      0.00
  263                  0.00    187.25      1.70      0.00
  264                  0.00    187.25      1.41      0.00
  265                  0.00    243.02     25.73      0.00
  266                  0.00    243.02     25.73      0.00
  267                  0.02    243.02     25.52      0.00
  268                  0.04    243.02     17.74      0.00
  269                  0.02    243.02     14.28      0.00
  270                  0.00    243.02     14.28      0.00
  271                  0.03    243.02     12.55      0.00
  272                  0.02    243.02     12.86      0.00
  273                  0.00    187.25      5.30      0.00
  274                  0.01    243.02     13.41      0.00
  275                  0.06    243.02     12.98      0.00
  276                  0.01    243.02     11.25      0.00
  277                  0.02    243.02     11.25      0.00
  278                  0.02    243.02      9.95      0.00
  279                  0.02    243.02      9.95      0.00
  280                  0.01    243.02      9.09      0.00
  281                  0.03    243.02      8.66      0.00
  282                  0.01    243.02      7.79      0.00
  283                  0.01    243.02      8.23      0.00
  284                  0.00    187.25      0.54      0.00
  285                  0.00    243.02      7.79      0.00
  286                  0.01    243.02      7.98      0.00
  287                  0.04    243.02      7.79      0.00
  288                  0.04    243.02     10.66      0.00
  289                  0.00    243.02     10.39      0.00
  290                  0.00    243.02     10.50      0.00
  291                  0.00    243.02     10.50      0.00
  292                  0.00    243.02     10.39      0.00
  293                  0.00    243.02     10.50      0.00
  294                  0.00    243.02     10.39      0.00
  295                  0.00    243.02     10.50      0.00
  296                  0.00    243.02     10.39      0.00
  297                  0.00    243.02     10.39      0.00
  298                  0.00    187.25      0.54      0.00
  299                  0.00    243.02     10.39      0.00
  300                  0.00    243.02      2.60      0.00
  301                  0.01    243.02      3.47      0.00
  302                  0.01    243.02      6.27      0.00
  303                  0.00    243.02      3.47      0.00
  304                  0.03    243.02      4.31      0.00
  305                  0.00    187.25      0.54      0.00
  306                  0.04    243.02      6.50      0.00
  307                  0.00    243.02      6.50      0.00
  308                  0.02    243.02      6.93      0.00
  309                  0.00    243.02      8.66      0.00
  310                  0.04    243.02      7.79      0.00
  311                  0.01    243.02      9.09      0.00
  312                  0.00    243.02      9.09      0.00
  313                  0.00    243.02      9.09      0.00
  314                  0.00    243.02      9.09      0.00
  315                  0.00    243.02      9.09      0.00
  317                  0.00    243.12      9.35      0.00
  318                  0.00    187.25      1.84      0.00
  319                  0.00    243.10      9.13      0.00
  320                  0.00    243.10      9.13      0.00
  321                  0.00    243.03      9.09      0.00
  322                  0.00    243.02      9.09      0.00
  323                  0.00    243.02      9.09      0.00
  324                  0.00    243.02      9.51      0.00
  325                  0.00    243.10      9.13      0.00
  326                  0.00    243.10      9.13      0.00
  327                  0.00    243.10     10.86      0.00
  328                  0.00    243.10     16.48      0.00
  329                  0.00    243.10     17.34      0.00
  330                  0.00    243.10     17.34      0.00
  331                  0.00    187.25      0.54      0.00
  332                  0.10    243.10     17.34      0.00
  333                  0.12    243.10     17.34      0.00
  334                  0.32    243.10     13.88      0.00
  335                  0.22    243.10     13.02      0.00
  336                  0.00    243.10     17.77      0.00
  337                  0.13    243.10     16.97      0.00
  338                  0.06    243.10     16.04      0.00
  339                  0.10    243.10     16.04      0.00
  340                  0.19    243.10     14.75      0.00
  341                  0.13    243.10     14.31      0.00
  342                  0.00    187.25      0.64      0.00
  343                  0.09    243.10     14.31      0.00
  344                  0.07    243.10     13.88      0.00
  345                  0.00    243.10     13.89      0.00
  346                  0.09    243.10     15.18      0.00
  347                  0.42    243.10     16.04      0.00
  348                  0.29    243.10     18.64      0.00
  349                  0.39    243.10     16.48      0.00
  350                  0.15    243.10     17.58      0.00
  351                  0.06    243.10     20.80      0.00
  352                  0.13    243.10     19.50      0.00
  353                  0.00    219.37     14.53      0.00
  354                  0.00    243.10     19.50      0.00
  355                  0.10    243.10     19.94      0.00
  356                  0.00    219.37     14.43      0.00
  357                  0.00    219.37     14.66      0.00
  358                  0.00    219.37     14.66      0.00
  359                  0.00    219.37     14.00      0.00
  360                  0.00    219.37     14.00      0.00
  361                  0.00    219.37     14.00      0.00
  362                  0.00    219.37     14.68      0.00
  363                  0.00    219.37     14.68      0.00
  364                  0.00    219.37      9.67      0.00
  365                  0.00    219.37      9.82      0.00
  366                  0.00    219.37     10.02      0.00
  367                  0.00    219.37     10.54      0.00
  368                  0.00    219.37      6.21      0.00
  369                  0.00    219.37      6.21      0.00
  370                  0.00    219.37      6.21      0.00
  371                  0.00    219.37      6.21      0.00
  372                  0.00    219.37      6.21      0.00
  373                  0.00    219.37      6.21      0.00
  374                  0.00    219.37      7.51      0.00
  375                  0.00    219.37      9.60      0.00
  376                  0.09    219.37     11.40      0.00
  377                  0.15    219.37     10.97      0.00
  378                  0.04    219.37     11.40      0.00
  379                  0.10    219.37     11.84      0.00
  380                  0.07    219.37     14.43      0.00
  381                  0.00    219.37     14.43      0.00
  382                  0.08    219.37     16.85      0.00
  383                  0.07    219.37     17.46      0.00
  384                  0.00    219.37     19.19      0.00
  385                  0.08    219.37     19.62      0.00
  386                  0.00    219.37     20.10      0.00
  387                  0.06    219.37     14.86      0.00
  388                  0.20    219.37     16.32      0.00
  389                  0.10    219.37     20.92      0.00
  390                  0.07    219.37     17.02      0.00
  391                  0.09    219.37     19.19      0.00
  392                  0.06    219.37     17.02      0.00
  393                  0.20    219.37     14.00      0.00
  394                  0.13    219.37     18.32      0.00
  396                  0.14    219.37     21.35      0.00
  397                  0.00    219.37     22.65      0.00
  398                  0.10    219.37     18.19      0.00
  399                  0.12    219.37     17.89      0.00
  400                  0.00    219.37     17.46      0.00
  401                  0.03    219.37     11.84      0.00
  402                  0.00    219.37     11.84      0.00
  403                  0.00    219.37     13.13      0.00
  404                  0.07    219.37     12.70      0.00
  405                  0.05    219.37      9.67      0.00
  407                  0.03    219.37     12.70      0.00
  408                  0.03    219.37     11.84      0.00
  409                  0.06    219.37     10.93      0.00
  410                  0.03    219.37     10.54      0.00
  411                  0.06    219.37     14.86      0.00
  412                  0.06    219.37     15.73      0.00
  413                  0.05    219.37     15.30      0.00
  414                  0.10    219.37     17.02      0.00
  415                  0.00    219.37     14.86      0.00
  416                  0.06    219.37     18.75      0.00
  417                  0.00    219.37     15.30      0.00
  418                  0.06    219.37     17.82      0.00
  419                  0.00    219.37     14.86      0.00
  420                  0.03    219.37     14.43      0.00
  421                  0.03    219.37     14.43      0.00
  422                  0.14    219.37     17.02      0.00
  423                  0.10    219.37     22.65      0.00
  424                  0.00    219.37     23.08      0.00
  425                  0.13    219.37     19.19      0.00
  426                  0.09    219.37     23.08      0.00
  427                  0.09    219.37     19.19      0.00
  428                  0.12    219.37     22.65      0.00
  429                  0.03    219.37     24.81      0.00
  430                  0.00    219.37     24.81      0.00
  431                  0.07    219.37     25.24      0.00
  432                  0.09    219.37     20.92      0.00
  433                  0.04    219.37     20.92      0.00
  434                  0.03    219.37     22.24      0.00
  435                  0.04    219.37     23.08      0.00
  436                  0.00    219.37     26.97      0.00
  437                  0.06    219.37     19.62      0.00
  438                  0.08    219.37     21.27      0.00
  439                  0.04    219.37     19.19      0.00
  440                  0.00    219.37     18.75      0.00
  441                  0.04    219.37     18.32      0.00
  442                  0.06    219.37     20.05      0.00
  443                  0.13    219.37     19.19      0.00
  444                  0.00    219.37     18.08      0.00
  445                  0.07    219.37     23.51      0.00
  446                  0.04    219.37     23.51      0.00
  447                  0.09    219.37     23.51      0.00
  448                  0.06    219.37     21.78      0.00
  449                  0.03    219.37     21.78      0.00
  450                  0.03    219.37     24.81      0.00
  451                  0.04    219.37     23.94      0.00
  452                  0.03    219.37     25.67      0.00
  453                  0.00    219.37     22.65      0.00
  454                  0.07    219.37     31.73      0.00
  455                  0.00    219.37     32.38      0.00
  456                  0.04    219.37     34.32      0.00
  457                  0.00    219.37     34.32      0.00
  458                  0.08    219.37     34.32      0.00
  459                  0.00    219.37      7.51      0.00
  460                  0.02    219.37      8.13      0.00
  461                  0.00    219.37      4.05      0.00
  462                  0.00    243.02     14.28      0.00
  463                  0.07    243.02     18.60      0.00
  464                  0.06    243.02     20.77      0.00
  465                  0.03    243.02     20.77      0.00
  466                  0.11    243.02     21.63      0.00
  467                  0.04    243.02     24.23      0.00
  468                  0.09    243.02     24.23      0.00
  469                  0.16    243.02     26.39      0.00
  470                  0.07    243.02     25.95      0.00
  471                  0.06    243.02     23.36      0.00
  472                  0.09    243.02     19.56      0.00
  473                  0.15    243.02     21.20      0.00
  474                  0.03    243.02     13.41      0.00
  475                  0.00    243.02     13.85      0.00
  476                  0.00    219.37      9.05      0.00
  477                  0.00    219.37     30.86      0.00
  478                  0.13    219.37     17.46      0.00
  479                  0.10    219.37     28.40      0.00
  480                  0.00    219.37     30.86      0.00
  481                  0.00    219.37     31.30      0.00
  482                  0.00    219.37     28.70      0.00
  483                  0.00    219.37     28.27      0.00
  484                  0.00    219.37     29.13      0.00
  485                  0.00    219.37     29.13      0.00
  486                  0.00    219.37     29.57      0.00
  487                  0.04    219.37     30.00      0.00
  488                  0.00    219.37     30.00      0.00
  489                  0.03    219.37     30.86      0.00
  490                  0.13    219.37     27.84      0.00
  491                  0.04    219.37     29.13      0.00
  492                  0.10    219.37     30.00      0.00
  493                  0.06    219.37     27.39      0.00
  494                  0.13    219.37     19.19      0.00
  495                  0.04    219.37     30.43      0.00
  496                  0.09    219.37     25.67      0.00
  497                  0.00    219.37     25.24      0.00
  498                  0.13    219.37     19.62      0.00
  499                  0.13    219.37     31.73      0.00
  500                  0.04    219.37     27.84      0.00
  501                  0.04    219.37     27.84      0.00
  502                  0.13    219.37     22.65      0.00
  503                  0.06    219.37     23.08      0.00
  504                  0.08    219.37     22.18      0.00
  505                  0.00    219.37     20.12      0.00
  506                  0.00    219.37     19.62      0.00
  507                  0.00    219.37     20.05      0.00
  508                  0.00    219.37     20.05      0.00
  509                  0.00    219.37     20.92      0.00
  510                  0.06    219.37     19.62      0.00
  511                  0.08    219.37     23.08      0.00
  512                  0.07    219.37     24.17      0.00
  513                  0.06    219.37     24.81      0.00
  514                  0.00    219.37     24.81      0.00
  515                  0.11    219.37     19.62      0.00
  516                  0.03    219.37     23.08      0.00
  517                  0.04    219.37     22.65      0.00
  518                  0.09    219.37     25.11      0.00
  519                  0.10    219.37     24.38      0.00
  520                  0.04    219.37     27.84      0.00
  521                  0.05    219.37     25.67      0.00
  522                  0.04    219.37     26.11      0.00
  523                  0.04    219.37     26.54      0.00
  524                  0.04    219.37     26.97      0.00
  525                  0.05    219.37     27.40      0.00
  526                  0.04    219.37     27.36      0.00
  527                  0.03    219.37     26.97      0.00
  528                  0.01    219.37     27.40      0.00
  529                  0.07    219.37     26.59      0.00
  530                  0.03    219.37     27.84      0.00
  531                  0.03    219.37     20.48      0.00
  532                  0.03    219.37     18.32      0.00
  533                  0.07    219.37     18.32      0.00
  534                  0.08    219.37     16.16      0.00
  535                  0.07    219.37     12.70      0.00
  536                  0.04    219.37     12.70      0.00
  537                  0.08    219.37     11.40      0.00
  538                  0.03    219.37     11.40      0.00
  539                  0.08    219.37     10.92      0.00
  540                  0.06    219.37      8.38      0.00
  541                  0.04    219.37     18.75      0.00
  542                  0.07    219.37     13.13      0.00
  543                  0.00    219.37     13.13      0.00
  544                  0.00    219.37     13.13      0.00
  545                  0.00    219.37     16.16      0.00
  546                  0.04    219.37     17.26      0.00
  547                  0.03    219.37     17.46      0.00
  548                  0.00    219.37     16.16      0.00
  549                  0.04    219.37     17.46      0.00
  550                  0.05    219.37     18.75      0.00
  551                  0.00    219.37     17.02      0.00
  552                  0.06    219.37     17.89      0.00
  553                  0.03    219.37     20.48      0.00
  554                  0.04    219.37     22.21      0.00
  555                  0.00    219.37     21.78      0.00
  556                  0.04    219.37     20.05      0.00
  557                  0.06    219.37     23.27      0.00
  558                  0.06    219.37     21.78      0.00
  559                  0.06    219.37     20.48      0.00
  560                  0.13    219.37     20.92      0.00
  561                  0.09    219.37     20.05      0.00
  562                  0.03    219.37     16.16      0.00
  563                  0.10    219.37     22.65      0.00
  564                  0.00    219.37     25.24      0.00
  565                  0.00    219.37     25.24      0.00
  566                  0.03    219.37     24.28      0.00
  567                  0.04    219.37     24.38      0.00
  568                  0.07    219.37     23.51      0.00
  569                  0.03    219.37     24.81      0.00
  570                  0.07    219.37     26.54      0.00
  571                  0.01    219.37     25.67      0.00
  572                  0.03    219.37     25.67      0.00
  573                  0.04    219.37     25.67      0.00
  574                  0.04    219.37     25.67      0.00
  575                  0.07    219.37     25.67      0.00
  576                  0.09    219.37     26.54      0.00
  577                  0.11    219.37     24.38      0.00
  578                  0.06    219.37     26.97      0.00
  579                  0.00    219.37     28.70      0.00
  580                  0.00    219.37     28.70      0.00
  581                  0.03    219.37     28.70      0.00
  582                  0.00    219.37     28.26      0.00
  583                  0.04    219.37     28.70      0.00
  584                  0.04    219.37     26.97      0.00
  585                  0.00    219.37     27.40      0.00
  586                  0.01    219.37     27.84      0.00
  587                  0.00    219.37     27.84      0.00
  588                  0.01    219.37     28.27      0.00
  589                  0.00    219.37     28.70      0.00
  590                  0.04    219.37     28.22      0.00
  591                  0.03    219.37     30.00      0.00
  592                  0.00    219.37     30.00      0.00
  593                  0.07    219.37     30.00      0.00
  594                  0.03    219.37     30.43      0.00
  595                  0.04    219.37     30.86      0.00
  596                  0.03    219.37     30.91      0.00
  597                  0.01    219.37     31.73      0.00
  598                  0.00    219.37     32.16      0.00
  599                  0.03    219.37     31.30      0.00
  600                  0.04    219.37     31.30      0.00
  601                  0.00    219.37     31.30      0.00
  602                  0.00    219.37     28.27      0.00
  603                  0.00    219.37     28.27      0.00
  604                  0.00    219.37     28.27      0.00
  605                  0.04    219.37     28.27      0.00
  606                  0.01    219.37     30.00      0.00
  607                  0.06    219.37     30.43      0.00
  608                  0.10    219.37     30.70      0.00
  609                  0.02    219.37     31.30      0.00
  610                  0.05    219.37     31.30      0.00
  611                  0.03    219.37     31.73      0.00
  612                  0.03    219.37     32.59      0.00
  613                  0.08    219.37     32.59      0.00
  614                  0.02    219.37     33.46      0.00
  615                  0.01    219.37     33.46      0.00
  616                  0.00    219.37     33.46      0.00
  617                  0.09    219.37     33.89      0.00
  618                  0.00    219.37     33.89      0.00
  619                  0.04    219.37     34.21      0.00
  620                  0.04    219.37     33.89      0.00
  621                  0.05    219.37     35.19      0.00
  622                  0.04    219.37     35.62      0.00
  623                  0.00    219.37     35.62      0.00
  624                  0.00    219.37     35.62      0.00
  625                  0.01    219.37     30.86      0.00
  626                  0.04    219.37     26.54      0.00
  627                  0.02    219.37     30.94      0.00
[...]
  1414                 0.39      0.00      0.00
  1415                 1.69      0.00      0.00
  1416                 1.61      0.00      0.00
  1417                 0.95      0.00      0.00
  1418                 0.66      0.00      0.00
  1419                 0.91      0.00      0.00
  1420                 1.57      0.00      0.00
  1421                 1.49      0.00      0.00
  1422                 0.02      0.00      0.00
  1423                 0.00      0.00      0.00
  1424                 0.00      0.00      0.00
  1427                 0.96      0.00      0.00
  1428                 0.06      0.00      0.00
  1429                 0.83      0.00      0.00
  1430                 0.44      0.00      0.00
  1431                 0.36      0.00      0.00
  1432                 0.13      0.00      0.00
  1433                 0.20      0.00      0.00
  1434                 0.09      0.00      0.00
  1435                 0.22      0.00      0.00
  1436                 0.07      0.00      0.00
  1437                -0.01      0.00      0.00
  1438                 0.07      0.00      0.00
  1439                 0.18      0.00      0.00
  1440                 0.03      0.00      0.00
  1441                -0.00      0.00      0.00
  1444                 0.00      0.00      0.00
  1445                -0.00      0.00      0.00
  1448                 0.00      0.00      0.00
  1449                -0.00      0.00      0.00
  1450                 0.00      0.00      0.00
  1453                -0.13      0.00      0.00
  1454                 0.00      0.00      0.00
  1455                -0.23      0.00      0.00
  1456                 0.00      0.00      0.00
  1457                 0.00      0.00      0.00
  1458                -0.23      0.00      0.00
  1459                 0.00      0.00      0.00
  1460                -0.23      0.00      0.00
  1461                 0.07      0.00      0.00
  1462                -0.30      0.00      0.00
  1463                 0.00      0.00      0.00
  1464                 0.03      0.00      0.00
  1465                -0.31      0.00      0.00
  1466                -0.11      0.00      0.00
  1467                 0.21      0.00      0.00
  1468                -0.57      0.00      0.00
  1470                -0.57      0.00      0.00
  1471                 0.13      0.00      0.00
  1472                -0.75      0.00      0.00
  1473                 0.22      0.00      0.00
  1474                -1.01      0.00      0.00
  1475                 0.00      0.00      0.00
  1476                 0.13      0.00      0.00
  1477                 0.35      0.00      0.00
  1478                 0.04      0.00      0.00
  1479                 0.27      0.00      0.00
  1480                 0.06      0.00      0.00
  1481                 0.08      0.00      0.00
  1482              6769.87      0.12      0.00
  1483              6025.52      0.25      0.00
  1484               744.35      0.01      0.00
  1485              -740.30      0.03      0.00
  1486              6765.82      0.48      0.01
  1487              -463.61      0.02      0.00
  1488              -276.69      0.02      0.00
  1489              -463.61      0.02      0.00
  1490               -22.04      0.00      0.00
  1491              -441.63      0.02      0.00
  1492               -22.12      0.00      0.00
  1493               -22.19      0.00      0.00
  1494                 0.00      0.00      0.00
  1495               -22.25      0.00      0.00
  1496              -463.99      0.02      0.00
  1497              -464.02      0.02      0.00
  1498              -193.53      0.01      0.00
  1499              -270.54      0.01      0.00
  1500                 0.19      0.00      0.00
  1501              -193.81      0.01      0.00
  1502                 0.04      0.00      0.00
  1503                 0.05      0.00      0.00
  1504                 0.04      0.00      0.00
  1505              -193.90      0.01      0.00
  1506               270.64      0.01      0.00
  1507              -464.57      0.02      0.00
  1508               270.58      0.01      0.00
  1509                 0.01      0.00      0.00
  1510              -464.62      0.02      0.00
  1511              -325.85      0.01      0.00
  1512              -138.84      0.01      0.00
  1513               -49.45      0.00      0.00
  1514              -276.42      0.01      0.00
  1515                 0.03      0.00      0.00
  1516                 0.52      0.00      0.00
  1519                 0.24      0.00      0.00
  1520                 0.21      0.00      0.00
  1521                 0.09      0.00      0.00
  1522                 0.07      0.00      0.00
  1523                 0.04      0.00      0.00
  1524                -0.02      0.00      0.00
  1525                -0.04      0.00      0.00
  1526                -0.06      0.00      0.00
  1527                -0.00      0.00      0.00
  1528                 0.06      0.00      0.00
  1529              -276.73      0.02      0.00
  1530              -276.80      0.02      0.00
  1531               467.55      0.01      0.00
  1532               467.55      0.01      0.00
  1533                48.39      0.00      0.00
  1534               419.16      0.01      0.00
  1535                18.59      0.00      0.00
  1536                29.76      0.00      0.00
  1537                 6.19      0.00      0.00
  1538                12.37      0.00      0.00
  1539                -6.19      0.00      0.00
  1540                18.52      0.00      0.00
  1541                 6.15      0.00      0.00
  1542                12.31      0.00      0.00
  1543                 6.15      0.00      0.00
  1544                18.41      0.00      0.00
  1545                 0.20      0.00      0.00
  1546                18.18      0.00      0.00
  1547                 0.04      0.00      0.00
  1548                 0.11      0.00      0.00
  1549                 0.04      0.00      0.00
  1550                 0.06      0.00      0.00
  1551                18.12      0.00      0.00
  1552                47.75      0.00      0.00
  1553              -122.28      0.00      0.00
  1554               169.94      0.01      0.00
  1555               296.85      0.01      0.00
  1556                36.56      0.00      0.00
  1557               133.29      0.01      0.00
  1558                55.28      0.00      0.00
  1559               -18.73      0.00      0.00
  1560               -74.24      0.01      0.00
  1561               129.53      0.01      0.00
  1562              -104.23      0.01      0.00
  1563                29.95      0.00      0.00
  1564                29.02      0.00      0.00
  1565                58.90      0.00      0.00
  1566                65.58      0.00      0.00
  1567                -6.71      0.00      0.00
  1568               -73.32      0.01      0.00
  1569               122.80      0.01      0.00
  1570                25.33      0.00      0.00
  1571               -44.10      0.00      0.00
  1572               100.13      0.01      0.00
  1573               -74.84      0.01      0.00
  1574               -44.17      0.00      0.00
  1575               -44.26      0.00      0.00
  1576               -16.02      0.00      0.00
  1577               -28.36      0.00      0.00
  1578                -4.01      0.00      0.00
  1579               -12.06      0.00      0.00
  1580                 0.00      0.00      0.00
  1581                -4.01      0.00      0.00
  1582                 0.00      0.00      0.00
  1583                -4.04      0.00      0.00
  1585               -16.14      0.00      0.00
  1586               -44.54      0.00      0.00
  1587               296.85      0.01      0.00
  1588              -176.31      0.01      0.00
  1589                 0.01      0.00      0.00
  1590              -176.32      0.01      0.00
  1591              -176.60      0.01      0.00
  1592                 0.28      0.00      0.00
  1593              -251.48      0.01      0.00
  1594                 0.08      0.00      0.00
  1595                 0.17      0.00      0.00
  1596                 0.08      0.00      0.00
  1597                 0.03      0.00      0.00
  1598                 0.15      0.00      0.00
  1599                 0.03      0.00      0.00
  1600                 0.08      0.00      0.00
  1601                 0.00      0.00      0.00
  1602                 0.07      0.00      0.00
  1603                 0.03      0.00      0.00
  1604                 0.01      0.00      0.00
  1605                -0.01      0.00      0.00
  1606                 0.00      0.00      0.00
  1607              -296.03      0.01      0.00
  1608                 0.82      0.00      0.00
  1609                 0.32      0.00      0.00
  1610                 0.47      0.00      0.00
  1611                 0.19      0.00      0.00
  1612                 0.11      0.00      0.00
  1613                -0.04      0.00      0.00
  1614                 0.18      0.00      0.00
  1615                 0.32      0.00      0.00
  1616                -0.10      0.00      0.00
  1617                 0.41      0.00      0.00
  1618                 0.03      0.00      0.00
  1619                 0.21      0.00      0.00
  1620                 0.17      0.00      0.00
  1621                 0.02      0.00      0.00
  1622                 0.11      0.00      0.00
  1623                 0.00      0.00      0.00
  1624                 0.15      0.00      0.00
  1625                 0.18      0.00      0.00
  1626                 0.04      0.00      0.00
  1627                 0.14      0.00      0.00
  1628                 0.05      0.00      0.00
  1629                 0.04      0.00      0.00
  1630                 0.00      0.00      0.00
  1631                 0.00      0.00      0.00
  1632                 0.04      0.00      0.00
  1633                 0.05      0.00      0.00
  1634                 0.04      0.00      0.00
  1635                 0.00      0.00      0.00
  1636                 0.04      0.00      0.00
  1637                 0.00      0.00      0.00
  1638                -0.00      0.00      0.00
  1644                -0.00      0.00      0.00
  1645                 6.03      0.00      0.00
  1646                 0.00      0.00      0.00
  1647                 6.03      0.00      0.00
  1653                 6.03      0.00      0.00
  1654                 6.03      0.00      0.00
  1655                 6.03      0.00      0.00
  1656                 6.03      0.00      0.00
  1657                 0.00      0.00      0.00
  1663                -0.00      0.00      0.00
  1664                 6.03      0.00      0.00
  1665                 6.03      0.00      0.00
  1666                 6.03      0.00      0.00
  1667                 6.03      0.00      0.00
  1668                 6.03      0.00      0.00
  1669                 6.03      0.00      0.00
  1670                -0.00      0.00      0.00
  1673                 6.03      0.00      0.00
  1674                 6.03      0.00      0.00
  1675                 0.00      0.00      0.00
  1676                 6.03      0.00      0.00
  1677                -0.00      0.00      0.00
  1678                 4.78      0.00      0.00
  1679                 1.25      0.00      0.00
  1680                 4.78      0.00      0.00
  1681                -1.17      0.00      0.00
  1682                 5.95      0.00      0.00
  1683                 0.00      0.00      0.00
  1685                 0.00      0.00      0.00
  1686                -1.17      0.00      0.00
  1687                 0.00      0.00      0.00
  1688                -1.17      0.00      0.00
  1694                -0.00      0.00      0.00
  1695                -1.17      0.00      0.00
  1696                 0.00      0.00      0.00
  1699                -1.22      0.00      0.00
  1700                -1.22      0.00      0.00
  1701                -1.22      0.00      0.00
  1702                 0.08      0.00      0.00
  1703                 5.83      0.00      0.00
  1704                 0.08      0.00      0.00
  1705                 0.08      0.00      0.00
  1706                 0.00      0.00      0.00
  1707                 0.08      0.00      0.00
  1710                 0.00      0.00      0.00
  1711                 0.00      0.00      0.00
  1714                 0.08      0.00      0.00
  1715                 0.08      0.00      0.00
  1716                 0.08      0.00      0.00
  1717                 0.00      0.00      0.00
  1718                 0.02      0.00      0.00
  1719                 0.00      0.00      0.00
  1722                 0.00      0.00      0.00
  1723                -0.00      0.00      0.00
  1724                -0.00      0.00      0.00
  1725                 0.00      0.00      0.00
  1726                 0.02      0.00      0.00
  1727                 0.02      0.00      0.00
  1728                 5.67      0.00      0.00
  1729                 5.54      0.00      0.00
  1730                 5.44      0.00      0.00
  1731                 5.38      0.00      0.00
  1732                 5.34      0.00      0.00
  1733                 5.34      0.00      0.00
  1734                 0.00      0.00      0.00
  1737                 5.34      0.00      0.00
  1738                 5.34      0.00      0.00
  1739                 5.34      0.00      0.00
  1740                 5.34      0.00      0.00
  1741                 0.00      0.00      0.00
  1742                 0.00      0.00      0.00
  1743                 0.00      0.00      0.00
  1746                 0.34      0.00      0.00
  1747                 0.00      0.00      0.00
  1750                 0.34      0.00      0.00
  1751                 0.34      0.00      0.00
  1752                 0.34      0.00      0.00
  1753                 0.33      0.00      0.00
  1754                 0.00      0.00      0.00
  1755                 0.32      0.00      0.00
  1756                 0.31      0.00      0.00
  1757                 0.00      0.00      0.00
  1758                 0.31      0.00      0.00
  1759                 0.31      0.00      0.00
  1760                 0.31      0.00      0.00
  1761                 0.00      0.00      0.00
  1762                 0.31      0.00      0.00
  1763                 0.31      0.00      0.00
  1764                 0.30      0.00      0.00
  1765                 0.30      0.00      0.00
  1766                 0.00      0.00      0.00
  1767                 0.30      0.00      0.00
  1768                 0.29      0.00      0.00
  1769                 0.29      0.00      0.00
  1770                 0.28      0.00      0.00
  1771                 0.28      0.00      0.00
  1772                 0.27      0.00      0.00
  1773                 0.27      0.00      0.00
  1774                 0.27      0.00      0.00
  1775                 0.00      0.00      0.00
  1776                 0.27      0.00      0.00
  1777                 0.26      0.00      0.00
  1778                 0.26      0.00      0.00
  1779                 0.26      0.00      0.00
  1780                 0.26      0.00      0.00
  1781                 0.26      0.00      0.00
  1782                 0.00      0.00      0.00
  1783                 0.25      0.00      0.00
  1784                 0.24      0.00      0.00
  1785                 0.24      0.00      0.00
  1786                 0.24      0.00      0.00
  1789                 0.24      0.00      0.00
  v1E                  0.00      0.00      0.00
  1793                -0.00      0.00      0.00
  1795                 0.00      0.00      0.00
  1796                -0.00      0.00      0.00
  1799                 0.24      0.00      0.00
  1800                 0.24      0.00      0.00
  1801                 0.08      0.00      0.00
  1802                 0.05      0.00      0.00
  1803                 0.06      0.00      0.00
  1804                -0.00      0.00      0.00
  1805                 0.00      0.00      0.00
  1806                -0.00      0.00      0.00
  1807                -0.00      0.00      0.00
  1810                 0.00      0.00      0.00
  1813                -0.00      0.00      0.00
  1814                 0.00      0.00      0.00
  1817                 0.00      0.00      0.00
  1819                -0.00      0.00      0.00
  1820                 0.00      0.00      0.00
  1822                 0.00      0.00      0.00
  1823                -0.00      0.00      0.00
  1824                 0.00      0.00      0.00
  1825                -0.00      0.00      0.00
  1826                -0.00      0.00      0.00
  1827                -0.00      0.00      0.00
  1828                 0.03      0.00      0.00
  1829                -0.05      0.00      0.00
  1830                 0.00      0.00      0.00
  1831                 0.00      0.00      0.00
  1832                -0.11      0.00      0.00
  1833                -0.00      0.00      0.00
  1835                -0.00      0.00      0.00
  1836                -0.11      0.00      0.00
  1837                -0.00      0.00      0.00
  1839                 0.00      0.00      0.00
  1842                51.63      0.00      0.00
  1844                51.63      0.00      0.00
  1845                 0.00      0.00      0.00
  1847                -0.00      0.00      0.00
  1848                51.63      0.00      0.00
  1849                51.63      0.00      0.00
  1850                20.11      0.00      0.00
  1865                 0.00      0.00      0.00
  1867                 0.00      0.00      0.00
  1878               -15.32      0.00      0.00
  1879                -2.25      0.00      0.00
  1885                -0.00      0.00      0.00
  1897                 0.00      0.00      0.00
  1898                 0.00      0.00      0.00
  1900                50.26      0.00      0.00
  1901                50.26      0.00      0.00
  1911                51.63      0.00      0.00
  1913                51.63      0.00      0.00
  1914                51.63      0.00      0.00
  1932                 9.16      0.00      0.00
  1933                 9.16      0.00      0.00
  1935                -9.16      0.00      0.00
  1936                -9.16      0.00      0.00
  1945              6765.77      0.00      0.00
  1946                 0.52      0.00      0.00
  1951                 0.00      0.00      0.00
  1953                -0.00      0.00      0.00
  1955                -0.00      0.00      0.00
  1956                 0.00      0.00      0.00
  1961                -0.00      0.00      0.00
  1962                -0.00      0.00      0.00
  1964                -0.00      0.00      0.00
  1965                -0.00      0.00      0.00
  1972                 0.11      0.00      0.00
  1973                 0.11      0.00      0.00
  1978                -5.06      0.00      0.00
  1979                -0.00      0.00      0.00
  1993                 5.06      0.00      0.00
  1994                 5.06      0.00      0.00
  2005                51.63      0.00      0.00
  2010                51.63      0.00      0.00
  2013                51.63      0.00      0.00
  2014                51.63      0.00      0.00
  2017                 0.00      0.00      0.00
  2020                -0.00      0.00      0.00
  2021                -0.00      0.00      0.00
  dummy1               0.24      0.10      0.14
  1A                  51.63      0.00    -87.08  Pump
  2A                   0.00      0.00      0.00  Pump
  3A                  49.07      0.00    -29.19  Pump
  4B                  50.26      0.00    -29.40  Pump
  5C                   6.03      0.00    -73.86  Pump
  6D                   0.00      0.00      0.00  Pump
  7F                   0.00      0.00      0.00  Pump
  v1708                0.08      0.00      0.00  PRV
   