  Page 1                                    Sat Jul 14 17:01:33 2018

  ******************************************************************
  *                           E P A N E T                          *
  *                   Hydraulic and Water Quality                  *
  *                   Analysis for Pipe Networks                   *
  *                         Version 2.00.12                        *
  ******************************************************************
  
  Scenario: Average Day  
  Date: 8/16/2016 4:09:48 PM  
   
      Input Data File ................... ../Data/final_input.inp
      Number of Junctions................ 1782
      Number of Reservoirs............... 4
      Number of Tanks ................... 0
      Number of Pipes ................... 1985
      Number of Pumps ................... 6
      Number of Valves .................. 4
      Headloss Formula .................. Hazen-Williams
      Hydraulic Timestep ................ 15.00 min
      Hydraulic Accuracy ................ 0.001000
      Status Check Frequency ............ 2
      Maximum Trials Checked ............ 10
      Damping Limit Threshold ........... 0.000000
      Maximum Trials .................... 100
      Quality Analysis .................. None
      Specific Gravity .................. 1.00
      Relative Kinematic Viscosity ...... 1.00
      Relative Chemical Diffusivity ..... 1.00
      Demand Multiplier ................. 1.00
      Total Duration .................... 30.00 min
      Reporting Criteria:
         All Nodes
         All Links
   
   
  Hydraulic Status:
  -----------------------------------------------------------------------
     0:00:00: Balanced after 9 trials
     0:00:00: Reservoir 3001 is emptying
     0:00:00: Reservoir 3003 is closed
     0:00:00: Reservoir 3004 is closed
     0:00:00: Reservoir 3006 is emptying
     0:00:00: PRV 4001 closed
     0:00:00: PRV 4002 closed
     0:00:00: PRV 4003 closed
   
     0:15:00: Balanced after 7 trials
     0:15:00: PRV 4004 changed from active to open
   
     0:30:00: Balanced after 1 trials
   
   
  Node Results at 0:00:00 hrs:
  ----------------------------------------------
                     Demand      Head  Pressure
  Node                  gpm        ft       psi
  ----------------------------------------------
  1003                 4.02   7298.99     87.52
  1010                 4.02   7295.65    143.27
  1012                 4.02   7298.46    103.33
  1020                 4.02   7297.22     72.46
  1021                 4.02   7295.63    143.26
  1022                 4.02   7297.07    115.72
  1023                 4.02   7296.81     74.45
  1024                 4.02   7296.41    117.60
  1025                 4.02   7295.89    126.04
  1026                 4.02   7295.69    143.29
  1027                 4.02   7295.74    136.81
  1028                 4.02   7295.94    119.56
  1029                 4.02   7295.93    126.06
  1030                 4.02   7296.17    119.66
  1031                 4.02   7295.94    119.57
  1032                 4.02   7295.95    128.23
  1033                 4.02   7295.85    132.53
  1034                 4.02   7295.80    138.14
  1035                 4.02   7295.75    143.31
  1036                 4.02   7296.17    130.06
  1037                 4.02   7296.30    134.89
  1038                 4.02   7296.17    111.00
  1040                 4.02   7296.24     93.70
  1041                 4.02   7296.17    119.66
  1042                 4.02   7296.17    130.50
  1043                 4.02   7296.18    111.00
  1044                 4.02   7296.49    115.47
  1046                 4.02   7296.92    124.32
  1047                 4.02   7296.76    126.42
  1048                 4.02   7296.82    124.28
  1049                 4.02   7296.47    117.63
  1051                 4.02   7296.79     80.94
  1052                 4.02   7296.62     76.53
  1053                 4.02   7296.54     85.16
  1055                 4.02   7296.62     95.16
  1056                 4.02   7296.74    106.91
  1059                 4.02   7296.99    115.69
  1060                 4.02   7297.23    107.12
  1061                 4.02   7297.35    124.51
  1062                 4.02   7297.37    107.18
  1064                 4.02   7296.79    109.10
  1065                 4.02   7296.72     98.24
  1066                 4.02   7296.77     93.06
  1067                 4.02   7296.81     74.44
  1068                 4.02   7296.72     72.24
  1070                 4.02   7296.62     87.36
  1071                 4.02   7296.67     76.55
  1074                 4.02   7297.23    107.12
  1076                 4.02   7297.23    102.79
  1077                 4.02   7297.23     85.46
  1078                 4.02   7297.23     96.29
  1079                 4.02   7297.46     74.30
  1080                 4.02   7297.24     78.96
  1086                 4.02   7297.26     70.31
  1087                 4.02   7297.30     74.66
  1088                 4.02   7297.34     74.67
  1089                 4.02   7429.75    116.02
  1090                 4.02   7429.75    118.18
  1092                 4.02   7298.15    137.85
  1093                 4.02   7297.51     64.35
  1095                 4.02   7297.51     68.68
  1096                 4.02   7297.69     73.09
  1097                 4.02   7297.40    127.56
  1098                 4.02   7297.46    112.86
  1099                 4.02   7298.83     86.15
  1100                 4.02   7297.89     55.41
  1101                 4.02   7298.91     84.02
  1102                 4.02   7298.43    102.01
  1103                 4.02   7298.18    116.20
  1104                 4.02   7429.76    110.39
  1105                 4.02   7298.30    105.42
  1106                 4.02   7298.15    129.19
  1107                 4.02   7298.15    130.05
  1108                 4.02   7298.15    129.19
  1110                 4.02   7298.15    135.69
  1111                 4.02   7298.20    116.21
  1114                 4.02   7298.32    103.26
  1115                 4.02   7298.36    107.61
  1117                 4.02   7298.26    107.57
  1118                 4.02   7298.30    111.92
  1120                 4.02   7298.16    120.53
  1121                 4.02   7298.18    113.17
  1122                 4.02   7298.21    111.88
  1123                 4.02   7298.24    114.06
  1124                 4.02   7298.24    116.23
  1125                 4.02   7298.27    114.08
  1126                 4.02   7298.28    105.41
  1127                 4.02   7298.29    101.08
  1128                 4.02   7298.21    111.88
  1129                 4.02   7298.22    107.55
  1130                 4.02   7298.23    107.56
  1131                 4.02   7298.22    104.52
  1133                 4.02   7298.31     95.89
  1135                 4.02   7297.42    122.37
  1136                 4.02   7298.35    105.44
  1137                 4.02   7298.51    101.18
  1138                 4.02   7298.83     93.95
  1139                 4.02   7297.29    120.15
  1141                 4.02   7297.55     80.40
  1142                 4.02   7297.57    100.77
  1144                 4.02   7297.44    111.55
  1146                 4.02   7297.40    111.53
  1147                 4.02   7297.38     62.56
  1148                 4.02   7297.68     98.66
  1149                 4.02   7298.79     86.14
  1150                 4.02   7298.34     68.61
  1151                 4.02   7298.69     65.30
  1152                 4.02   7298.17     68.53
  1153                 4.02   7298.04     64.15
  1154                 4.02   7297.51     63.48
  1155                 4.02   7297.53     76.06
  1156                 4.02   7297.51     68.25
  1157                 4.02   7297.53     82.56
  1158                 4.02   7297.59     77.81
  1159                 4.02   7298.02     72.80
  1161                 4.02   7297.87     77.07
  1162                 4.02   7297.71     80.04
  1163                 4.02   7297.56     82.13
  1164                 4.02   7298.02     87.53
  1165                 4.02   7297.82     86.15
  1166                 4.02   7297.65     98.64
  1167                 4.02   7297.65     96.04
  1168                 4.02   7297.81     98.71
  1169                 4.02   7298.02     94.47
  1170                 4.02   7429.75    116.02
  1171                 4.02   7298.61     90.39
  1172                 4.02   7297.51     85.58
  1173                 4.02   7297.81     98.71
  1174                 4.02   7297.55     81.27
  1175                 4.02   7297.53     72.59
  1176                 4.02   7297.66     86.51
  1177                 4.02   7297.65     90.84
  1178                 4.02   7298.04     87.54
  1179                 4.02   7298.32    109.76
  6005                 8.43   7430.09    102.30
  6006                 8.43   7301.79     63.60
  6008                 8.43   7429.82    110.41
  6009                 8.43   7429.81    123.41
  6011                 8.43   7299.51     90.78
  6013                 8.43   7301.49     65.64
  6014                 8.43   7298.24    116.23
  6015                 8.43   7298.13    135.68
  6018                 8.43   7298.14    135.68
  6035                 8.43   7298.20    146.11
  6056                 8.43   7297.95    129.97
  6057                 8.43   7297.96    124.77
  6058                 8.43   7297.95    123.90
  6059                 8.43   7297.97    121.75
  6060                 8.43   7297.99    116.12
  6061                 8.43   7298.06    116.58
  6062                 8.43   7298.09    116.16
  6063                 8.43   7298.06    120.48
  6064                 8.43   7298.11    120.50
  6065                 8.43   7298.23    108.86
  6066                 8.43   7298.17    108.83
  6067                 8.43   7298.26    106.71
  6068                 8.43   7298.38    107.62
  6069                 8.43   7298.47    107.66
  6070                 8.43   7298.39    101.56
  6071                 8.43   7298.44     97.25
  6072                 8.43   7298.59     92.55
  6073                 8.43   7298.99     86.22
  6074                 8.43   7299.38     85.09
  6075                 8.43   7300.19     72.88
  6076                 8.43   7301.46     69.96
  6077                 8.43   7427.05    111.81
  6083                 8.43   7298.12    128.74
  6084                 8.43   7298.13    129.18
  6085                 8.43   7298.15    129.19
  6086                 8.43   7298.15    127.45
  6087                 8.43   7298.13    127.45
  6088                 8.43   7298.17    120.97
  6089                 8.43   7298.19    120.97
  6090                 8.43   7298.12    129.18
  6091                 8.43   7298.12    126.58
  6092                 8.43   7298.15    118.36
  6093                 8.43   7298.19    118.37
  6094                 8.43   7298.32    109.33
  6095                 8.43   7298.21    109.28
  6096                 8.43   7298.16    108.83
  6097                 8.43   7298.15    114.46
  6098                 8.43   7298.52    112.01
  6099                 8.43   7298.83    105.65
  6100                 8.43   7298.13    120.51
  6101                 8.43   7298.12    125.71
  6102                 8.43   7298.12    125.71
  6103                 8.43   7298.20    120.54
  6104                 8.43   7298.30    112.79
  6105                 8.43   7298.23    115.36
  6106                 8.43   7298.20    119.24
  6107                 8.43   7298.20    121.41
  6108                 8.43   7298.19    120.54
  6109                 8.43   7298.28    116.25
  6110                 8.43   7298.30    111.92
  6111                 8.43   7298.24    116.23
  6112                 8.43   7298.18    127.04
  6113                 8.43   7298.19    123.57
  6114                 8.43   7299.27     90.68
  6115                 8.43   7298.83     96.99
  6116                 8.43   7298.72    103.44
  6117                 8.43   7298.36    103.72
  6118                 8.43   7298.36    107.18
  6119                 8.43   7298.53    102.92
  6120                 8.43   7298.56    100.33
  6121                 8.43   7298.58     97.31
  6122                 8.43   7298.61    107.72
  6123                 8.43   7298.77    103.46
  6124                 8.43   7298.78    103.46
  6125                 8.43   7298.62     99.06
  6126                 8.43   7298.59     97.32
  6127                 8.43   7300.02     75.84
  6128                 8.43   7298.85     91.80
  6129                 8.43   7298.87     88.77
  6130                 8.43   7298.88     91.81
  6131                 8.43   7299.01     85.37
  6132                 8.43   7299.05     81.05
  6133                 8.43   7298.94     81.00
  6134                 8.43   7298.94     86.20
  6135                 8.43   7299.41     82.07
  6136                 8.43   7299.08     81.93
  6137                 8.43   7298.88     91.81
  6138                 8.43   7298.77    103.46
  6139                 8.43   7298.78    103.46
  6140                 8.43   7298.78     99.13
  6141                 8.43   7298.81     99.14
  6142                 8.43   7429.84    136.42
  6143                 8.43   7299.47     86.43
  6144                 8.43   7299.51     73.88
  6145                 8.43   7299.52     86.45
  6146                 8.43   7299.53     77.36
  6147                 8.43   7299.55     86.46
  6148                 8.43   7299.46     68.66
  6149                 8.43   7299.61     68.73
  6150                 8.43   7299.82     73.58
  6151                 8.43   7429.81    120.81
  6152                 8.43   7429.82    119.95
  6153                 8.43   7429.82    121.25
  6154                 8.43   7429.84    116.92
  6156                 8.43   7429.98    103.99
  6157                 8.43   7429.91    108.29
  6158                 8.43   7429.86    110.86
  6159                 8.43   7429.88    106.97
  6160                 8.43   7429.84    113.46
  6161                 8.43   7429.84    116.49
  6178                 8.43   7429.87    103.50
  6179                 8.43   7429.86    106.10
  6199                 8.43   7301.21     76.35
  6200                 8.43   7301.18     82.41
  6201                 8.43   7300.60     86.49
  6202                 8.43   7300.07     99.69
  6203                 8.43   7300.49     86.87
  6204                 8.43   7300.48     89.90
  6205                 8.43   7300.28     94.58
  6206                 8.43   7300.69     86.53
  6207                 8.43   7300.90     74.48
  6208                 8.43   7300.88     79.68
  6209                 8.43   7300.82     80.08
  6210                 8.43   7300.77     83.10
  6211                 8.43   7300.78     80.06
  6212                 8.43   7300.76     77.46
  6213                 8.43   7300.82     75.75
  6214                 8.43   7300.79     75.30
  6215                 8.43   7300.77     74.00
  6216                 8.43   7300.80     69.24
  6217                 8.43   7300.77     70.53
  6218                 8.43   7297.96    113.51
  6219                 8.43   7297.95    120.00
  6220                 8.43   7297.95    123.90
  6221                 8.43   7298.15    112.29
  6222                 8.43   7298.11    111.84
  6223                 8.43   7298.15    103.19
  6224                 8.43   7298.26    105.40
  6225                 8.43   7298.44     96.38
  6226                 8.43   7298.38     98.96
  6227                 8.43   7299.96     70.18
  6228                 8.43   7299.28     68.15
  6229                 8.43   7299.24     83.73
  6230                 8.43   7301.50     66.51
  6231                 8.43   7301.32     70.33
  6232                 8.43   7301.24     72.90
  6233                 8.43   7301.35     66.45
  6234                 8.43   7301.18     71.14
  6235                 8.43   7301.23     72.90
  6236                 8.43   7300.99     68.89
  6237                 8.43   7301.37     65.59
  6238                 8.43   7299.08     90.59
  6239                 8.43   7299.13     90.62
  6240                 8.43   7299.28     75.52
  6241                 8.43   7298.86    105.67
  6242                 8.43   7299.08     94.93
  6243                 8.43   7298.92     94.86
  6244                 8.43   7299.05     91.88
  6245                 8.43   7298.92     98.76
  6246                 8.43   7298.52    107.68
  6247                 8.43   7298.79     92.20
  6248                 8.43   7298.49    110.70
  6249                 8.43   7298.76     92.62
  6250                 8.43   7298.51    112.45
  6251                 8.43   7298.15    123.99
  6252                 8.43   7298.48    108.53
  6253                 8.43   7298.23    124.02
  6255                 8.43   7298.12    139.57
  6256                 8.43   7298.14    131.79
  6257                 8.43   7298.23    124.02
  6258                 8.43   7298.12    135.68
  6259                 8.43   7298.12    135.67
  6260                 8.43   7298.12    133.51
  6261                 8.43   7298.12    133.51
  6262                 8.43   7298.12    135.67
  6263                 8.43   7299.10     86.27
  6264                 8.43   7300.87     68.84
  9001                 0.00   7135.00     15.17
  9002                 0.00   7135.00     15.17
  9003                 0.00   7135.00     15.17
  9004                 0.00   7135.00     15.17
  9005                 0.00   7135.00     15.17
  9006                 0.00   7135.00     15.17
  9017                 0.00   7298.77     86.12
  9018                 0.00   7298.77     86.12
  9019                 0.00   7298.77     86.12
  9020                 0.00   7298.77     86.12
  9021                 0.00   7298.77     86.12
  9022                 0.00   7298.77     86.12
  11004                4.02   7297.42     67.34
  11005                4.02   7297.42     63.44
  11006                4.02   7297.48     68.24
  11007                4.02   7429.75    118.18
  11009                4.02   7296.48     91.20
  11011                4.02   7297.51     64.35
  11013                4.02   7297.51     63.92
  11017                4.02   7297.99     67.16
  11018                4.02   7297.89     65.81
  11019                4.02   7295.70    143.29
  11021                4.02   7295.71    147.63
  11023                4.02   7295.75    143.31
  11024                4.02   7295.89    126.04
  11029                4.02   7295.74    136.81
  11030                4.02   7295.77    143.32
  11031                4.02   7295.77    143.32
  11032                4.02   7295.78    130.33
  11033                4.02   7295.80    132.50
  11034                4.02   7295.81    132.51
  11035                4.02   7295.82    134.68
  11037                4.02   7295.91    130.38
  11038                4.02   7295.91    121.72
  11039                4.02   7295.93    126.06
  11043                4.02   7296.26     93.70
  11046                4.02   7296.20    104.51
  11047                4.02   7296.17    111.00
  11049                4.02   7296.31    134.89
  11052                4.02   7296.37    128.42
  11055                4.02   7296.42    121.94
  11057                4.02   7296.48    115.47
  11060                4.02   7296.77    126.42
  11062                4.02   7296.82    125.14
  11063                4.02   7296.44    117.62
  11064                4.02   7296.53    115.49
  11065                4.02   7296.54    111.16
  11067                4.02   7296.53    111.15
  11070                4.02   7296.49     93.80
  11076                4.02   7296.68     80.89
  11077                4.02   7296.64     80.87
  11078                4.02   7296.62     76.53
  11080                4.02   7296.71     98.23
  11081                4.02   7296.81    109.11
  11084                4.02   7296.86    111.30
  11085                4.02   7296.62     95.16
  11087                4.02   7297.01    115.70
  11089                4.02   7296.77     96.09
  11092                4.02   7296.77     93.93
  11097                4.02   7296.73     72.25
  11099                4.02   7297.30     91.99
  11107                4.02   7297.23    100.62
  11108                4.02   7297.23    107.12
  11109                4.02   7297.23     96.29
  11114                4.02   7297.24     78.96
  11115                4.02   7297.47     75.60
  11116                4.02   7297.51     85.15
  11119                4.02   7298.15    135.69
  11123                4.02   7298.15    138.72
  11127                4.02   7298.17    118.80
  11128                4.02   7298.20    117.08
  11130                4.02   7298.16    120.53
  11131                4.02   7298.16    126.59
  11132                4.02   7298.18    113.17
  11133                4.02   7298.16    121.83
  11134                4.02   7298.15    132.65
  11135                4.02   7298.22    111.89
  11136                4.02   7298.35    105.01
  11137                4.02   7298.35    103.28
  11138                4.02   7298.21    115.35
  11139                4.02   7298.35    104.58
  11140                4.02   7298.22    107.12
  11141                4.02   7298.26    106.27
  11142                4.02   7298.30    111.05
  11143                4.02   7298.34    109.77
  11144                4.02   7298.35     96.78
  11145                4.02   7298.26    101.51
  11146                4.02   7297.59     68.72
  11147                4.02   7298.30     97.19
  11148                4.02   7298.74     80.05
  11150                4.02   7298.29    112.78
  11151                4.02   7298.27    111.91
  11152                4.02   7297.67     84.78
  11153                0.00   7298.34     65.36
  11164                4.02   7297.24    111.46
  11165                4.02   7297.40    127.56
  11169                4.02   7429.83     96.55
  11170                4.02   7429.75    112.98
  11171                4.02   7429.80    101.74
  11172                4.02   7297.41    124.53
  11173                4.02   7297.42    109.37
  11174                4.02   7429.76    113.42
  11175                4.02   7429.76    159.78
  11176                4.02   7429.76    101.72
  11177                4.02   7297.43    117.18
  11178                4.02   7297.48    106.80
  11179                4.02   7297.40    119.33
  11180                4.02   7297.42    122.37
  11181                4.02   7429.76    105.19
  11182                4.02   7297.44    121.08
  11184                4.02   7429.80    100.87
  11185                4.02   7297.42    107.64
  11186                4.02   7297.49    100.30
  11187                4.02   7429.76    110.82
  11188                4.02   7429.76    110.82
  11189                4.02   7429.76    112.55
  11190                4.02   7429.76    105.62
  11191                4.02   7429.76    108.22
  11192                4.02   7297.43    120.21
  11193                4.02   7297.45    110.25
  11194                4.02   7297.55     79.53
  11195                0.00   7297.62     74.37
  11196                4.02   7297.58    100.78
  11197                4.02   7429.75    111.25
  11199                4.02   7297.47    112.00
  11200                4.02   7429.76    112.99
  11201                4.02   7297.56     71.31
  11202                4.02   7297.50    103.78
  11206                4.02   7298.03    100.10
  11207                4.02   7297.45    115.89
  11208                4.02   7429.78    105.63
  11209                4.02   7429.75    108.65
  11210                4.02   7298.15    130.05
  11211                4.02   7298.15    123.55
  11212                4.02   7298.15    129.62
  11214                4.02   7298.15    125.29
  11215                4.02   7298.24    116.23
  11216                4.02   7298.16    119.23
  11217                4.02   7298.17    116.20
  11219                4.02   7298.20    114.48
  11220                4.02   7298.25    109.73
  11221                4.02   7298.21    107.98
  11222                4.02   7298.24    114.06
  12001                0.00   7295.69    142.42
  12002                0.00   7295.71    146.76
  12005                0.00   7295.75    142.45
  12010                0.00   7295.74    135.94
  12011                0.00   7295.78    129.46
  12012                4.02   7295.77    130.33
  12013                0.00   7295.77    142.46
  12015                0.00   7295.89    125.18
  12017                0.00   7295.94    118.70
  12018                0.00   7295.93    125.20
  12019                0.00   7295.91    120.85
  12020                0.00   7295.81    131.64
  12021                0.00   7295.82    133.81
  12023                0.00   7295.91    129.52
  12025                0.00   7296.17    129.63
  12029                0.00   7296.11    101.44
  12030                0.00   7296.17    110.13
  12031                0.00   7296.17    114.46
  12032                0.00   7296.31    134.02
  12033                0.00   7296.17    118.80
  12038                0.00   7296.37    127.55
  12041                0.00   7296.42    121.07
  12043                4.02   7296.62    109.03
  12044                0.00   7296.48    114.60
  12046                0.00   7296.44    116.75
  12047                0.00   7296.49    114.60
  12048                0.00   7296.53    114.62
  12049                0.00   7296.54    110.29
  12050                0.00   7296.53    110.29
  12051                4.02   7296.52    115.48
  12052                0.00   7296.17    110.13
  12053                0.00   7296.20    103.65
  12055                0.00   7296.26     92.84
  12057                0.00   7296.49     92.94
  12061                0.00   7296.54     84.30
  12062                0.00   7296.64     80.00
  12064                0.00   7296.77     95.23
  12070                0.00   7296.68     80.02
  12071                0.00   7296.62     94.29
  12072                0.00   7296.71     97.36
  12075                4.02   7296.69    109.06
  12078                0.00   7296.67    108.18
  12079                0.00   7296.79    108.23
  12080                0.00   7296.86    110.43
  12082                0.00   7297.01    114.83
  12084                0.00   7296.90    104.81
  12085                0.00   7296.59    108.15
  12088                0.00   7296.91    117.82
  12090                0.00   7296.52    118.95
  12092                0.00   7296.77    125.56
  12094                0.00   7296.82    124.28
  12095                0.00   7297.23    106.26
  12096                0.00   7297.23    101.92
  12107                0.00   7297.41    123.67
  12108                0.00   7297.42    108.51
  12112                4.02   7429.77    114.29
  12114                4.02   7297.65     96.04
  12115                4.02   7297.65     90.84
  12117                0.00   7297.49     99.44
  12118                0.00   7297.42    106.77
  12119                0.00   7297.24    110.60
  12126                0.00   7297.40    126.70
  12129                0.00   7297.23     84.59
  12131                0.00   7297.23     95.43
  12133                0.00   7297.23     99.76
  12134                0.00   7296.77     93.06
  12139                0.00   7296.79     80.07
  12140                0.00   7296.62     75.66
  12141                0.00   7296.62     86.50
  12142                0.00   7296.67     75.68
  12147                4.02   7296.63     80.87
  12152                0.00   7296.81     73.58
  12153                0.00   7296.73     71.38
  12154                4.02   7297.31     74.66
  12157                0.00   7297.26     69.44
  12159                0.00   7297.31     73.80
  12160                0.00   7297.30     91.12
  12173                0.00   7297.27    117.11
  12174                4.02   7297.27    117.97
  12175                0.00   7297.24     78.10
  12176                0.00   7297.40    118.46
  12177                0.00   7297.55     79.32
  12178                0.00   7297.55     78.45
  12179                0.00   7297.58     99.91
  12180                4.02   7297.62     75.23
  12181                0.00   7297.48    105.93
  12182                0.00   7297.45    109.39
  12183                0.00   7297.43    119.34
  12184                0.00   7297.44    120.21
  12186                0.00   7297.43    116.31
  12187                0.00   7297.42    121.51
  12191                0.00   7297.45    115.02
  12192                0.00   7297.59     67.64
  12193                0.00   7298.30    110.19
  12196                0.00   7297.47    111.13
  12198                4.02   7298.31     99.36
  12199                0.00   7298.31     98.50
  12202                0.00   7297.50    102.91
  12203                0.00   7297.56     70.44
  12204                0.00   7298.03     99.02
  12205                0.00   7297.65     94.96
  12206                0.00   7298.53     89.27
  12207                4.02   7298.53     90.36
  12208                4.02   7297.81     92.21
  12209                4.02   7297.84     86.16
  12210                0.00   7297.81     91.13
  12211                0.00   7297.84     85.08
  12212                0.00   7297.65     89.76
  12213                4.02   7297.66     86.51
  12214                0.00   7297.66     85.43
  12215                0.00   7298.04     86.46
  12216                4.02   7297.57     82.14
  12217                0.00   7297.57     81.06
  12218                4.02   7297.65     89.98
  12219                0.00   7297.65     88.89
  12220                4.02   7297.55     81.27
  12221                0.00   7297.55     80.18
  12222                0.00   7297.59     76.95
  12223                0.00   7297.53     81.69
  12224                4.02   7297.65     88.68
  12225                0.00   7297.65     87.59
  12226                0.00   7297.51     84.07
  12227                0.00   7297.47     74.51
  12228                4.02   7297.50     73.88
  12229                0.00   7297.50     72.79
  12230                0.00   7297.53     74.98
  12231                0.00   7298.02     71.93
  12232                0.00   7297.51     67.82
  12233                0.00   7297.51     62.44
  12234                0.00   7297.51     63.48
  12236                0.00   7297.43     64.49
  12237                0.00   7297.38     61.56
  12238                0.00   7297.51     58.15
  12239                0.00   7297.42     62.58
  12240                0.00   7297.48     67.15
  12243                4.02   7298.03    103.14
  12250                0.00   7297.51     62.92
  12257                0.00   7297.89     64.73
  12258                0.00   7297.99     66.07
  12259                0.00   7297.87     76.20
  12260                0.00   7297.71     78.95
  12261                4.02   7297.69     84.79
  12262                0.00   7297.69     83.71
  12263                0.00   7298.28     71.40
  12264                4.02   7298.28     71.18
  12265                0.00   7298.28     70.10
  12266                4.02   7298.48     66.50
  12267                0.00   7298.48     65.63
  12268                0.00   7298.44     72.77
  12269                4.02   7298.28     74.22
  12270                0.00   7298.44     74.07
  12271                4.02   7298.46     77.76
  12272                0.00   7298.46     76.68
  12273                0.00   7298.68     79.37
  12274                4.02   7298.44     77.32
  12275                0.00   7298.30     73.14
  12276                0.00   7298.69     64.21
  12277                0.00   7298.19     69.19
  12278                0.00   7297.81     97.63
  12279                0.00   7298.02     93.39
  12280                4.02   7297.65     93.44
  12281                0.00   7297.65     92.58
  12282                4.02   7298.77     83.53
  12283                0.00   7298.77     82.44
  12284                4.02   7298.71     78.73
  12285                0.00   7298.71     77.87
  12286                4.02   7298.44     73.85
  12287                0.00   7298.71     75.27
  12288                4.02   7298.71     77.43
  12289                0.00   7298.71     76.35
  12290                4.02   7298.29    109.32
  12291                0.00   7298.29    108.23
  12292                4.02   7298.73     94.78
  12293                4.02   7298.61     96.89
  12294                0.00   7298.61     96.02
  12295                0.00   7298.73     93.69
  12296                0.00   7298.83     92.87
  12297                0.00   7298.83     80.95
  12298                0.00   7298.91     82.94
  12299                4.02   7298.43     97.25
  12300                4.02   7298.31    101.53
  12301                4.02   7298.53     99.46
  12302                0.00   7298.53     98.37
  12303                4.02   7298.67     80.45
  12304                4.02   7298.34     92.87
  12305                4.02   7298.34     92.44
  12306                4.02   7298.34     87.24
  12307                0.00   7298.34     86.16
  12308                4.02   7298.30     92.42
  12309                4.02   7298.30     92.86
  12310                0.00   7298.30     87.44
  12311                4.02   7297.66     84.34
  12312                0.00   7297.66     83.26
  12313                0.00   7298.30     88.95
  12314                4.02   7297.54     89.93
  12316                0.00   7298.32     97.63
  12317                4.02   7298.31     96.33
  12318                0.00   7298.31     95.46
  12319                4.02   7298.34    101.54
  12320                0.00   7298.34    100.46
  12321                4.02   7298.32    102.83
  12322                0.00   7298.32    101.96
  12323                4.02   7298.29    105.42
  12324                0.00   7298.29    104.34
  12325                0.00   7298.26    105.19
  12326                4.02   7298.30     89.82
  12327                0.00   7298.34    108.90
  12328                0.00   7298.26    100.42
  12329                0.00   7298.30     96.32
  12330                0.00   7298.74     79.18
  12331                4.02   7298.29    105.42
  12332                0.00   7298.29    111.92
  12333                0.00   7298.27    111.04
  12334                4.02   7298.34    109.77
  12335                4.02   7298.30     88.52
  12336                4.02   7298.26     98.04
  12337                4.02   7298.26    104.11
  12338                4.02   7298.23    104.52
  12339                0.00   7298.23    103.44
  12340                4.02   7298.29     99.78
  12341                0.00   7298.29     98.92
  12342                4.02   7298.29     95.89
  12343                4.02   7298.29    101.52
  12344                4.02   7298.29     98.49
  12345                0.00   7298.29     97.40
  12346                0.00   7298.29    100.65
  12347                0.00   7298.30     91.99
  12348                0.00   7298.34     91.36
  12349                0.00   7298.31    100.44
  12350                4.02   7298.42    102.01
  12351                0.00   7298.42    101.14
  12352                4.02   7298.35    107.61
  12353                0.00   7298.35    106.53
  12354                4.02   7298.51     98.58
  12355                4.02   7298.51     97.28
  12356                0.00   7298.51     97.50
  12357                0.00   7298.51     96.20
  12358                4.02   7298.31    107.59
  12359                4.02   7298.31    108.03
  12360                4.02   7298.31    105.43
  12361                0.00   7298.31    104.34
  12362                4.02   7298.27    112.77
  12363                0.00   7298.27    111.69
  12364                0.00   7298.31    106.94
  12365                0.00   7298.32    108.68
  12367                0.00   7298.35     95.69
  12368                4.02   7298.30     90.25
  12369                0.00   7298.26    103.02
  12370                4.02   7298.26    100.80
  12371                4.02   7298.22    106.26
  12372                0.00   7298.22    105.17
  12373                0.00   7298.24    114.71
  12374                0.00   7298.24    112.98
  12375                4.02   7298.21    110.58
  12376                4.02   7298.20    113.18
  12377                0.00   7298.21    109.50
  12378                4.02   7298.21    108.85
  12379                0.00   7298.21    107.77
  12380                0.00   7298.20    112.10
  12381                0.00   7298.35    102.19
  12382                4.02   7298.21    110.15
  12383                0.00   7298.21    109.07
  12384                0.00   7298.35    103.93
  12385                4.02   7298.22    107.56
  12386                0.00   7298.22    106.47
  12387                0.00   7298.22    111.02
  12388                0.00   7298.22    106.04
  12389                0.00   7298.35    103.71
  12390                0.00   7298.21    114.48
  12392                0.00   7298.20    116.21
  12393                0.00   7298.16    119.66
  12394                4.02   7298.16    126.59
  12395                0.00   7298.17    117.71
  12396                0.00   7298.20    113.39
  12397                4.02   7298.17    116.20
  12398                0.00   7298.17    115.12
  12399                0.00   7298.16    118.36
  12400                0.00   7298.24    115.36
  12401                0.00   7298.17    115.33
  12402                4.02   7298.26    111.91
  12403                0.00   7298.26    111.04
  12404                4.02   7298.25    111.03
  12405                4.02   7298.25    108.87
  12406                0.00   7298.25    109.73
  12408                4.02   7298.24    115.80
  12409                4.02   7298.71     80.47
  12411                0.00   7298.25    108.65
  12412                4.02   7298.24    115.36
  12413                0.00   7298.24    114.28
  12414                4.02   7298.15    118.79
  12415                4.02   7298.17    120.53
  12416                0.00   7298.18    112.09
  12417                0.00   7298.16    125.72
  12418                0.00   7298.15    131.79
  12419                0.00   7298.15    134.82
  12420                0.00   7298.16    121.83
  12421                0.00   7298.15    123.12
  12422                0.00   7298.15    125.72
  12423                4.02   7298.15    122.69
  12425                0.00   7298.15    129.19
  12426                0.00   7298.15    123.99
  12427                4.02   7298.15    126.59
  12435                0.00   7298.15    137.85
  12539                4.02   7296.17    115.33
  12547                4.02   7296.91    118.68
  12548                4.02   7296.90    105.68
  12549                4.02   7296.67    109.05
  12550                4.02   7296.59    109.01
  12551                4.02   7296.54    111.16
  12552                4.02   7296.49    115.47
  12553                4.02   7296.52    119.82
  12558                4.02   7297.43     65.18
  12559                4.02   7297.51     59.15
  12571                4.02   7298.44     75.15
  12572                4.02   7298.71     76.13
  12573                4.02   7298.28     72.48
  12574                4.02   7298.19     70.28
  12575                4.02   7298.30     74.22
  12576                4.02   7298.68     80.46
  12578                4.02   7298.32     98.50
  12579                4.02   7295.60    133.72
  12580                4.02   7295.60    132.85
  12581                4.02   7295.60    133.71
  12582                4.02   7295.53    128.05
  12583                4.02   7295.53    128.05
  12585                4.02   7295.48    122.40
  12586                4.02   7295.50    128.04
  12629                4.02   7295.46    121.52
  12630                4.02   7295.46    114.59
  12631                4.02   7295.46    113.72
  12659                4.02   7295.50    128.91
  12660                4.02   7295.50    128.04
  12661                4.02   7295.51    130.21
  12662                4.02   7295.51    129.35
  12748                4.02   7295.59    130.68
  12749                4.02   7295.59    129.81
  12750                4.02   7295.54    128.92
  12751                4.02   7295.54    128.06
  12752                4.02   7295.52    123.72
  12753                4.02   7295.52    122.85
  12754                4.02   7295.53    125.89
  12755                4.02   7295.53    125.02
  12756                4.02   7295.53    116.35
  12757                4.02   7295.53    115.49
  12758                4.02   7295.50    122.41
  12759                4.02   7295.50    128.47
  12760                4.02   7295.50    127.61
  12761                4.02   7295.50    122.41
  12762                4.02   7295.50    122.41
  12763                4.02   7295.50    121.54
  12764                4.02   7295.50    118.51
  12765                4.02   7295.50    117.64
  12766                4.02   7295.48    125.87
  12767                4.02   7295.48    125.86
  12768                4.02   7295.48    125.00
  12769                4.02   7295.48    118.50
  12770                4.02   7295.48    117.63
  12771                4.02   7295.48    126.30
  12772                4.02   7295.48    126.30
  12773                4.02   7295.47    125.86
  12774                4.02   7295.47    125.00
  12775                4.02   7295.48    125.43
  12776                4.02   7295.47    122.83
  12777                4.02   7295.47    121.96
  12778                4.02   7295.48    122.40
  12779                4.02   7295.48    121.53
  12780                4.02   7295.46    124.12
  12781                4.02   7295.46    123.26
  12782                4.02   7295.46    119.36
  12783                4.02   7295.46    118.49
  12784                4.02   7295.46    124.99
  12785                4.02   7295.46    124.99
  12786                4.02   7295.46    124.12
  12787                4.02   7295.46    115.46
  12788                4.02   7295.46    114.59
  12789                4.02   7295.46    122.82
  12790                4.02   7295.46    122.82
  12791                4.02   7295.46    121.96
  12792                4.02   7295.46    125.85
  12793                4.02   7295.46    124.99
  12794                4.02   7295.46    117.19
  12795                4.02   7295.46    116.32
  12796                4.02   7295.47    123.26
  12797                4.02   7295.47    123.26
  12798                4.02   7295.47    122.39
  12799                4.02   7295.47    119.36
  12800                4.02   7295.47    118.49
  12801                4.02   7296.11    102.31
  12804                4.02   7296.00    110.92
  12805                0.00   7296.00    110.06
  12810                4.02   7295.59    135.88
  12811                4.02   7295.61    146.29
  12812                4.02   7295.63    141.53
  12813                4.02   7295.64    139.80
  12814                4.02   7295.61    146.29
  12815                4.02   7295.61    145.20
  12816                4.02   7295.61    150.62
  12817                4.02   7295.61    149.45
  12818                4.02   7295.62    155.82
  12819                4.02   7295.62    154.61
  12820                4.02   7295.62    157.99
  12821                4.02   7295.62    157.12
  12822                4.02   7295.62    151.92
  12823                4.02   7295.62    151.06
  12824                4.02   7295.62    145.86
  12825                4.02   7295.62    144.90
  12826             1311.00   7128.50     67.38
  12827                4.02   7297.86     69.27
  12828                0.00   7297.86     68.40
  12831                4.02   7298.83     93.95
  12832                4.02   7298.46    104.71
  12833                0.00   7298.46    103.85
  12834                4.02   7295.73    145.47
  12835                0.00   7295.73    144.60
  12836                4.02   7295.72    141.13
  12837                0.00   7295.72    140.27
  12838                4.02   7295.80    132.50
  12839                0.00   7295.80    131.64
  12840                4.02   7296.05    106.61
  12841                0.00   7296.05    105.75
  12842                4.02   7296.17     98.00
  12843                0.00   7296.17     97.13
  12844                4.02   7296.22    103.65
  12845                0.00   7296.22    102.79
  12846                0.00   7297.69     72.01
  12847                4.02   7296.19    107.54
  12848                0.00   7296.19    106.67
  12849                4.02   7296.17    113.17
  12850                0.00   7296.17    112.30
  12851                4.02   7296.34    130.57
  12852                0.00   7296.34    129.71
  12853                4.02   7296.58     80.84
  12854                0.00   7296.58     79.98
  12855                4.02   7429.76    110.39
  12856                4.02   7296.65     75.67
  12857                0.00   7296.65     74.81
  12858                4.02   7296.63     83.03
  12859                0.00   7296.63     82.17
  12860                4.02   7296.62     91.70
  12861                0.00   7296.62     90.83
  12862                4.02   7296.78     83.10
  12863                0.00   7296.78     82.23
  12864                4.02   7296.84    106.96
  12865                0.00   7296.84    106.09
  12866                4.02   7297.35     68.18
  12867                4.02   7297.63     74.80
  12868                4.02   7296.95    117.83
  12869                0.00   7296.95    116.97
  12870                4.02   7296.61    109.89
  12871                0.00   7296.61    109.02
  12872                4.02   7296.56    112.03
  12873                0.00   7296.56    111.17
  12874                4.02   7295.74    143.31
  12875                0.00   7295.74    142.44
  12876                4.02   7295.76    134.65
  12877                4.02   7295.77    132.49
  12878                0.00   7295.76    133.79
  12879                0.00   7295.77    131.63
  12880                4.02   7295.84    132.52
  12881                0.00   7295.84    131.66
  12882                4.02   7296.32    132.73
  12883                0.00   7296.32    131.86
  12884                4.02   7296.46    117.62
  12885                0.00   7296.46    116.76
  12886                4.02   7296.45    119.78
  12887                0.00   7296.45    118.92
  12888                4.02   7296.40    124.96
  12889                4.02   7296.40    124.96
  12890                0.00   7296.40    124.10
  12891                4.02   7296.40    124.10
  12892                4.02   7296.41    121.93
  12893                0.00   7296.41    121.07
  12894                0.00   7296.40    123.23
  12895                4.02   7296.48    116.33
  12896                4.02   7296.50    117.64
  12897                0.00   7296.48    115.46
  12898                0.00   7296.50    116.78
  12899                4.02   7296.78    124.26
  12900                0.00   7296.78    123.40
  12901                4.02   7297.23     85.46
  12902                0.00   7297.23     84.60
  12903                4.02   7297.23    102.79
  12904                0.00   7297.23    101.92
  12905                4.02   7297.23     94.12
  12906                0.00   7297.23     93.26
  12907                4.02   7297.23     76.80
  12908                0.00   7297.23     75.93
  12909                4.02   7298.15    137.85
  12910                0.00   7298.15    136.99
  12911                4.02   7297.26    115.80
  12912                4.02   7297.25    115.80
  12913                4.02   7297.23    109.29
  12914                4.02   7297.23    107.12
  12915                0.00   7297.26    114.94
  12916                0.00   7297.25    114.93
  12917                0.00   7297.23    108.43
  12918                0.00   7297.23    106.26
  12919                4.02   7297.28    117.98
  12920                0.00   7297.28    117.11
  12921                4.02   7297.40    124.53
  12922                4.02   7297.40    122.36
  12923                4.02   7297.40    113.26
  12924                4.02   7297.40    112.83
  12925                4.02   7297.40    109.37
  12926                0.00   7297.40    123.66
  12927                0.00   7297.40    121.50
  12928                0.00   7297.40    112.40
  12929                0.00   7297.40    111.97
  12930                0.00   7297.40    108.50
  12931                4.02   7297.44    107.22
  12932                4.02   7297.46    105.06
  12933                0.00   7297.44    106.35
  12934                0.00   7297.46    104.19
  12935                4.02   7297.53     99.89
  12936                4.02   7297.53    102.92
  12937                4.02   7297.43    109.38
  12938                0.00   7297.53     99.02
  12939                0.00   7297.53    102.05
  12940                0.00   7297.43    108.51
  12941                4.02   7297.44    110.68
  12942                4.02   7297.44    111.55
  12943                0.00   7297.44    110.68
  12944                0.00   7297.44    109.82
  12945                4.02   7297.41    109.37
  12946                0.00   7297.41    108.50
  12947                4.02   7297.40    126.70
  12948                4.02   7297.41    123.24
  12949                4.02   7297.42    118.04
  12950                4.02   7297.42    121.07
  12951                0.00   7297.40    125.83
  12952                0.00   7297.41    122.37
  12953                0.00   7297.42    117.17
  12954                0.00   7297.42    120.21
  12955                4.02   7297.43    121.08
  12956                4.02   7297.45    118.05
  12957                4.02   7297.46    111.12
  12958                4.02   7297.45    110.69
  12959                0.00   7297.43    120.21
  12960                0.00   7297.45    117.18
  12961                0.00   7297.45    109.82
  12962                0.00   7297.46    110.26
  12963                4.02   7297.56    100.77
  12964                4.02   7297.54    102.06
  12965                4.02   7297.52    102.92
  12966                4.02   7297.49    111.57
  12967                0.00   7297.56     99.90
  12968                0.00   7297.54    101.19
  12969                0.00   7297.52    102.05
  12970                0.00   7297.49    110.71
  12971                4.02   7298.15    124.85
  12972                4.02   7298.15    126.15
  12973                4.02   7298.15    131.79
  12974                4.02   7298.15    129.19
  12975                0.00   7298.15    123.99
  12976                0.00   7298.15    125.29
  12977                0.00   7298.15    130.92
  12978                0.00   7298.15    128.32
  12979                4.02   7298.15    133.52
  12980                4.02   7298.15    133.52
  12981                4.02   7298.15    133.95
  12982                4.02   7298.15    135.25
  12983                4.02   7298.15    131.35
  12984                4.02   7298.15    129.19
  12985                4.02   7298.15    137.85
  12986                4.02   7298.17    119.23
  12987                4.02   7298.16    119.66
  12988                4.02   7298.16    122.69
  12989                4.02   7298.16    124.86
  12990                4.02   7298.16    122.69
  12991                4.02   7298.35    104.58
  12992                4.02   7298.33    109.77
  12993                4.02   7298.31    109.76
  12994                4.02   7298.30    109.75
  12995                4.02   7298.30    105.42
  12996                4.02   7298.29    111.92
  12997                4.02   7298.28    113.21
  12998                4.02   7298.27    109.74
  12999                4.02   7298.26    106.27
  13000                4.02   7298.22    106.69
  13001                4.02   7298.22    109.72
  13002                4.02   7298.21    114.05
  13003                4.02   7298.21    116.21
  13004                4.02   7298.20    116.21
  13005                4.02   7298.20    116.21
  13006                0.00   7298.35    103.71
  13007                0.00   7298.33    108.90
  13008                0.00   7298.31    108.89
  13009                0.00   7298.30    108.89
  13010                0.00   7298.30    104.55
  13011                0.00   7298.29    111.05
  13012                0.00   7298.28    112.35
  13013                0.00   7298.27    108.87
  13014                0.00   7298.26    105.41
  13015                0.00   7298.22    105.82
  13016                0.00   7298.22    108.85
  13017                0.00   7298.21    113.18
  13018                0.00   7298.20    115.34
  13019                0.00   7298.20    115.35
  13020                0.00   7298.21    115.35
  13021                0.00   7298.17    118.36
  13022                0.00   7298.16    118.80
  13023                0.00   7298.16    121.83
  13024                0.00   7298.16    123.99
  13025                0.00   7298.16    121.83
  13026                0.00   7298.15    132.65
  13027                0.00   7298.15    132.65
  13028                0.00   7298.15    133.09
  13029                0.00   7298.15    136.99
  13030                0.00   7298.15    134.39
  13031                4.02   7298.15    127.02
  13032                4.02   7298.15    129.19
  13033                0.00   7298.15    126.16
  13034                0.00   7298.15    128.32
  13035                0.00   7298.15    130.49
  13036                0.00   7298.15    128.32
  13037                0.00   7297.51     60.88
  13038                0.00   7296.80    124.27
  13039                0.00   7296.80    123.40
  61027                8.43   7298.17    133.53
  61046                8.43   7430.07    102.29
  61097                8.43   7427.01    121.33
  61098                8.43   7301.49     65.64
  61099                8.43   7301.46     69.96
  61101                8.43   7301.44     65.62
  61128                8.43   7297.99    126.52
  61129                8.43   7298.12    146.51
  61151                8.43   7297.95    129.97
  61154                8.43   7297.95    123.90
  61155                8.43   7297.95    126.93
  61156                8.43   7297.95    123.90
  61157                8.43   7297.95    120.00
  61158                8.43   7297.96    113.51
  61159                8.43   7297.98    121.75
  61160                8.43   7297.96    124.77
  61161                8.43   7297.96    124.77
  61163                8.43   7297.99    123.49
  61164                8.43   7297.96    124.77
  61165                8.43   7297.99    123.49
  61167                8.43   7298.11    129.17
  61168                8.43   7298.06    123.95
  61169                8.43   7298.09    116.16
  61170                8.43   7298.06    116.58
  61171                8.43   7298.13    108.38
  61172                8.43   7298.15    103.19
  61173                8.43   7298.12    111.84
  61174                8.43   7298.14    112.29
  61175                8.43   7298.15    108.82
  61176                8.43   7298.26    106.71
  61177                8.43   7298.26    105.40
  61178                8.43   7298.46    107.66
  61179                8.43   7298.38     98.96
  61180                8.43   7298.39    101.56
  61181                8.43   7298.44     97.25
  61182                8.43   7298.44     96.38
  61183                8.43   7300.16     72.86
  61184                8.43   7299.96     70.18
  61185                8.43   7299.96     70.18
  61186                8.43   7299.96     68.88
  61187                8.43   7299.81     80.51
  61188                8.43   7299.53     84.72
  61189                8.43   7299.53     84.72
  61190                8.43   7299.70     77.87
  61191                8.43   7299.70     77.43
  61192                8.43   7299.55     79.97
  61193                8.43   7299.55     79.97
  61194                8.43   7299.39     85.10
  61195                8.43   7298.99     85.35
  61196                8.43   7298.99     86.65
  61197                8.43   7298.59     92.55
  61198                8.43   7298.59     90.38
  61199                8.43   7300.37     94.62
  61200                8.43   7300.37     92.45
  61201                8.43   7300.29     94.58
  61202                8.43   7300.13     99.71
  61203                8.43   7300.37     91.16
  61204                8.43   7300.48     86.87
  61205                8.43   7300.48     89.90
  61206                8.43   7300.78     83.10
  61207                8.43   7300.87     79.67
  61208                8.43   7300.89     74.48
  61209                8.43   7300.79     65.34
  61210                8.43   7300.79     63.17
  61211                8.43   7300.80     69.24
  61212                8.43   7300.80     69.67
  61213                8.43   7300.79     75.30
  61214                8.43   7300.76     71.39
  61215                8.43   7300.77     70.53
  61216                8.43   7300.82     75.75
  61217                8.43   7300.78     80.06
  61218                8.43   7300.76     77.46
  61219                8.43   7300.72     80.91
  61220                8.43   7300.70     86.53
  61222                8.43   7298.14    135.68
  61223                8.43   7298.14    124.85
  61224                8.43   7298.12    125.71
  61225                8.43   7298.13    120.51
  61226                8.43   7298.12    126.58
  61227                8.43   7298.12    128.74
  61229                8.43   7298.12    137.84
  61230                8.43   7298.13    131.78
  61231                8.43   7298.16    127.46
  61232                8.43   7298.13    126.15
  61233                8.43   7298.17    120.97
  61234                8.43   7298.17    133.53
  61235                8.43   7298.23    116.22
  61236                8.43   7298.17    127.46
  61237                8.43   7298.18    127.04
  61238                8.43   7298.19    123.57
  61239                8.43   7298.23    115.36
  61240                8.43   7298.30    112.79
  61241                8.43   7298.20    124.88
  61242                8.43   7298.19    121.84
  61243                8.43   7298.20    116.21
  61244                8.43   7298.20    119.24
  61245                8.43   7298.20    121.41
  61246                8.43   7298.20    120.54
  61247                8.43   7298.23    112.76
  61248                8.43   7298.48    112.00
  61249                8.43   7298.84    105.66
  61250                8.43   7299.26     90.67
  61251                8.43   7298.16    111.43
  61252                8.43   7298.16    108.83
  61253                8.43   7298.21    109.28
  61254                8.43   7298.15    114.46
  61255                8.43   7298.20    113.61
  61256                8.43   7298.36    107.18
  61257                8.43   7298.48     99.87
  61258                8.43   7298.38    103.72
  61259                8.43   7298.60     94.29
  61260                8.43   7298.58     97.31
  61261                8.43   7298.59     97.32
  61262                8.43   7298.54    102.93
  61263                8.43   7298.56    100.34
  61264                8.43   7298.79     96.97
  61265                8.43   7298.68    103.42
  61266                8.43   7298.78    102.16
  61267                8.43   7298.78     97.83
  61268                8.43   7298.79     93.50
  61269                8.43   7298.80     87.88
  61270                8.43   7298.97     86.21
  61271                8.43   7298.97     76.68
  61272                8.43   7298.95     85.34
  61273                8.43   7299.10     81.07
  61274                8.43   7299.02     85.37
  61275                8.43   7298.85     88.76
  61276                8.43   7298.86     91.80
  61277                8.43   7299.53     77.36
  61278                8.43   7299.52     80.82
  61279                8.43   7299.51     73.88
  61280                8.43   7299.53     68.69
  61281                8.43   7299.97     75.81
  61282                8.43   7299.62     68.73
  61283                8.43   7299.50     90.78
  61284                8.43   7299.47     68.66
  61285                8.43   7429.81    109.98
  61286                8.43   7429.81    109.98
  61287                8.43   7429.81    123.41
  61288                8.43   7429.81    119.08
  61289                8.43   7429.81    119.08
  61290                8.43   7429.82    121.24
  61291                8.43   7429.81    120.81
  61292                8.43   7429.81    125.14
  61293                8.43   7429.82    119.95
  61294                8.43   7429.84    110.42
  61295                8.43   7429.86    108.70
  61296                8.43   7429.82    121.25
  61297                8.43   7429.82    113.45
  61298                8.43   7429.89    106.98
  61299                8.43   7429.84    113.46
  61300                8.43   7429.83    114.75
  61301                8.43   7429.83    114.75
  61302                8.43   7302.00     63.70
  61303                8.43   7429.91    108.29
  61304                8.43   7429.86    112.60
  61305                8.43   7429.86    105.66
  61306                8.43   7429.86    106.10
  61307                8.43   7429.86    110.86
  61308                8.43   7429.87    103.50
  61309                8.43   7429.86    112.60
  61310                8.43   7429.86    105.66
  61364                8.43   7298.11    129.17
  61373                0.00   7302.00     62.83
  61383                0.00   7301.44     64.75
  61384                0.00   7301.46     69.09
  61393                0.00   7301.49     64.77
  61426                0.00   7298.12    145.64
  61427                0.00   7297.99    125.65
  61429                0.00   7298.12    136.97
  61447                0.00   7298.19    120.97
  61459                0.00   7299.50     89.91
  61460                0.00   7299.52     79.95
  61461                0.00   7299.51     73.02
  61462                0.00   7299.53     76.49
  61463                0.00   7299.53     67.83
  61464                0.00   7299.97     74.95
  61465                0.00   7299.62     67.86
  61466                0.00   7299.47     67.80
  61472                0.00   7298.97     75.81
  61473                0.00   7298.80     87.01
  61474                0.00   7299.26     89.80
  61475                0.00   7298.78    101.30
  61476                0.00   7298.78     96.96
  61477                0.00   7298.79     92.63
  61478                0.00   7298.95     84.47
  61479                0.00   7299.10     80.20
  61480                0.00   7299.02     84.50
  61481                0.00   7298.86     90.93
  61482                0.00   7298.85     87.90
  61483                0.00   7298.16    110.56
  61484                0.00   7298.15    113.59
  61485                0.00   7298.20    112.74
  61486                0.00   7298.21    108.42
  61487                0.00   7298.23    115.36
  61488                0.00   7298.14    134.82
  61489                0.00   7298.14    123.98
  61490                0.00   7298.12    124.84
  61491                0.00   7298.84    104.79
  61492                0.00   7298.48    111.13
  61493                0.00   7298.79     96.10
  61494                0.00   7298.60     93.42
  61495                0.00   7298.58     96.45
  61496                0.00   7298.56     99.47
  61497                0.00   7298.59     96.45
  61498                0.00   7298.54     99.46
  61499                0.00   7298.48     99.00
  61500                0.00   7298.68    102.55
  61501                0.00   7298.38    102.86
  61502                0.00   7298.16    107.96
  61503                0.00   7298.36    106.32
  61504                0.00   7298.13    119.65
  61505                0.00   7298.12    125.71
  61506                0.00   7298.12    127.88
  61507                0.00   7298.13    125.28
  61508                0.00   7298.17    120.10
  61509                0.00   7298.30    111.92
  61510                0.00   7298.23    112.76
  61511                0.00   7298.23    114.49
  61512                0.00   7298.20    115.34
  61513                0.00   7298.20    118.38
  61514                0.00   7298.20    124.01
  61515                0.00   7298.20    120.54
  61516                0.00   7298.19    122.71
  61517                0.00   7298.18    126.17
  61518                0.00   7298.17    126.60
  61519                0.00   7298.20    119.68
  61520                0.00   7298.17    132.66
  61521                0.00   7298.16    126.59
  61522                0.00   7298.13    130.91
  61523                0.00   7300.79     62.30
  61524                0.00   7300.80     68.38
  61525                0.00   7300.80     68.81
  61526                0.00   7300.79     64.47
  61527                0.00   7300.77     69.66
  61528                0.00   7299.96     68.01
  61529                0.00   7300.16     72.00
  61530                0.00   7299.96     69.31
  61531                0.00   7299.81     79.64
  61532                0.00   7299.70     76.57
  61533                0.00   7299.55     79.10
  61534                0.00   7299.53     83.86
  61535                0.00   7299.39     84.23
  61536                0.00   7298.99     84.49
  61537                0.00   7298.99     85.79
  61538                0.00   7298.59     89.51
  61539                0.00   7298.59     91.68
  61540                0.00   7298.44     96.38
  61541                0.00   7298.44     95.52
  61542                0.00   7298.46    106.79
  61543                0.00   7298.39    100.70
  61544                0.00   7298.38     98.09
  61545                0.00   7300.13     98.85
  61546                0.00   7300.37     91.58
  61547                0.00   7300.29     93.72
  61548                0.00   7300.37     90.29
  61549                0.00   7300.48     89.03
  61550                0.00   7300.48     86.00
  61551                0.00   7300.87     78.81
  61552                0.00   7300.78     79.20
  61553                0.00   7300.70     85.66
  61554                0.00   7300.78     82.23
  61555                0.00   7300.72     80.04
  61556                0.00   7300.89     73.62
  61557                0.00   7300.82     74.88
  61558                0.00   7300.76     76.59
  61559                0.00   7300.79     74.44
  61560                0.00   7300.77     73.13
  61561                0.00   7300.76     70.53
  61564                0.00   7298.11    128.31
  61565                0.00   7298.06    123.08
  61566                0.00   7297.99    122.62
  61567                0.00   7297.96    123.91
  61568                0.00   7297.95    129.10
  61569                0.00   7297.95    126.07
  61570                0.00   7297.95    123.03
  61571                0.00   7297.95    123.04
  61574                0.00   7297.96    123.91
  61575                0.00   7297.98    121.31
  61576                0.00   7297.95    119.14
  61577                0.00   7297.96    112.64
  61578                0.00   7298.09    115.30
  61579                0.00   7298.14    111.42
  61580                0.00   7298.06    115.72
  61581                0.00   7298.12    110.97
  61582                0.00   7298.15    107.96
  61583                0.00   7298.26    105.84
  61584                0.00   7298.26    104.54
  61585                0.00   7298.15    102.32
  61586                0.00   7298.13    107.52
  61587                8.43   7299.20     80.25
  61588                8.43   7299.32     68.17
  61589                8.43   7299.15     66.79
  61590                8.43   7299.12     77.61
  61591                8.43   7299.29     83.75
  61592                8.43   7299.26     71.17
  61593                8.43   7299.25     79.83
  61594                0.00   7309.13     14.36
  61595                8.43   7301.18     71.14
  61596                8.43   7301.35     66.45
  61597                8.43   7301.24     72.90
  61598                8.43   7301.32     70.33
  61599                8.43   7301.29     80.29
  61600                8.43   7301.26     81.57
  61601                8.43   7301.37     64.29
  61602                8.43   7301.32     71.63
  61603                8.43   7301.27     77.25
  61604                8.43   7301.23     86.76
  61605                8.43   7301.18     76.34
  61606                8.43   7301.16     82.39
  61607                8.43   7300.34     93.31
  61608                8.43   7298.23    108.86
  61609                8.43   7298.10    119.63
  61610                8.43   7299.29     75.52
  61611                8.43   7299.21     76.35
  61612                8.43   7299.15     82.39
  61613                8.43   7299.17     81.97
  61614                0.00   7301.35     65.58
  61615                0.00   7300.99     68.02
  61616                0.00   7301.18     70.27
  61617                0.00   7301.32     69.47
  61618                0.00   7301.24     72.03
  61619                0.00   7301.29     79.42
  61620                0.00   7301.26     80.71
  61621                0.00   7299.29     74.65
  61622                0.00   7299.21     75.49
  61623                8.43   7298.89     91.81
  61624                0.00   7298.89     90.94
  61625                8.43   7299.00     86.23
  61626                0.00   7299.00     85.36
  61627                0.00   7299.17     81.10
  61628                8.43   7299.08     92.76
  61629                0.00   7299.08     91.90
  61630                0.00   7299.15     81.53
  61631                8.43   7299.06     91.89
  61632                0.00   7299.06     91.02
  61633                8.43   7298.69    100.39
  61634                0.00   7298.69     99.52
  61635                8.43   7298.60    104.25
  61636                0.00   7298.60    103.38
  61637                8.43   7298.51    112.45
  61638                0.00   7298.51    111.58
  61639                8.43   7298.51    108.11
  61640                0.00   7298.51    107.25
  61641                8.43   7298.52    105.08
  61642                0.00   7298.52    104.22
  61643                8.43   7298.93     98.76
  61644                0.00   7298.93     97.89
  61645                0.00   7299.32     67.30
  61646                0.00   7299.20     66.38
  61647                0.00   7299.15     65.93
  61648                0.00   7299.12     76.75
  61649                0.00   7299.29     82.89
  61650                0.00   7299.26     70.31
  61651                0.00   7299.25     78.97
  61652                8.43   7298.77     92.19
  61653                8.43   7298.97     91.41
  61654                8.43   7298.82     98.28
  61655                8.43   7298.65    105.57
  61656                8.43   7298.48    108.53
  61657                8.43   7298.71     96.50
  61658                8.43   7298.60    103.82
  61659                8.43   7298.52    110.71
  61660                0.00   7298.77     91.33
  61661                0.00   7298.97     90.55
  61662                0.00   7298.65    104.71
  61663                0.00   7298.48    107.67
  61664                0.00   7298.71     95.64
  61665                0.00   7298.82     97.41
  61666                0.00   7298.60    102.95
  61667                0.00   7298.52    109.85
  61668                8.43   7298.35    114.11
  61669                8.43   7298.24    124.03
  61670                8.43   7298.15    131.79
  61671                8.43   7298.15    123.99
  61672                8.43   7298.27    124.04
  61673                8.43   7298.40    117.60
  61674                0.00   7298.35    113.24
  61675                0.00   7298.24    123.16
  61676                0.00   7298.15    130.92
  61677                0.00   7298.40    116.73
  61678                0.00   7298.27    123.18
  61679                0.00   7298.15    123.12
  61680                8.43   7298.14    137.85
  61681                8.43   7298.14    143.05
  61682                8.43   7298.12    139.57
  61683                8.43   7298.12    128.74
  61684                8.43   7298.12    133.07
  61685                8.43   7298.12    135.67
  61686                0.00   7298.14    136.98
  61687                0.00   7298.14    142.18
  61688                0.00   7298.12    138.71
  61689                0.00   7298.12    127.88
  61690                0.00   7298.12    132.21
  61691                0.00   7298.12    134.81
  61692                0.00   7298.10    118.77
  61693                0.00   7298.23    107.99
  61694                0.00   7300.34     92.44
  61695                8.43   7300.59     86.48
  61696                0.00   7300.59     85.61
  61697                0.00   7301.16     81.53
  61698                0.00   7301.18     75.47
  61699                0.00   7301.37     64.72
  61700                0.00   7301.32     70.77
  61701                0.00   7301.27     76.38
  61702                0.00   7301.23     85.89
  61703                8.43   7299.11     77.61
  61704                8.43   7299.00     91.43
  61706                8.43   7434.02     75.40
  61707                8.43   7431.79     83.10
  61708                8.43   7432.97     68.01
  61710                8.43   7431.81     83.11
  61712                8.43   7431.17     78.50
  61713                8.43   7431.17     75.90
  61715                8.43   7427.01    109.20
  61716                8.43   7427.01    109.20
  61718                8.43   7427.06    101.42
  61719                8.43   7427.01    120.03
  61720                8.43   7427.01    114.83
  61721                8.43   7427.01    114.83
  61722                8.43   7427.20     88.05
  61723                8.43   7427.32     88.53
  61725                0.00   7297.95    129.10
  61726                8.43   7301.45     62.16
  61727                8.43   7301.45     62.15
  61728                0.00   7301.45     61.29
  61729                8.43   7427.05    115.71
  61731                8.43   7427.09    108.36
  61732                8.43   7427.09    108.36
  61734                8.43   7427.12     97.11
  61735                8.43   7427.13     99.28
  61736                8.43   7427.12    100.58
  61738                8.43   7427.19     88.04
  61740                8.43   7427.13     97.11
  61741                8.43   7427.13     99.28
  61744                8.43   7427.01    109.20
  61745                8.43   7427.01    116.13
  61746                8.43   7427.02    101.40
  61747                8.43   7431.91     87.49
  61748                8.43   7430.06     94.49
  61749                8.43   7432.21     85.02
  61750                8.43   7432.98     76.25
  61751                8.43   7431.93     75.80
  61752                8.43   7430.90     97.45
  61753                8.43   7429.86     91.37
  61755                8.43   7430.33     91.14
  61756                8.43   7429.75     95.22
  61757                8.43   7429.77    103.03
  61758                8.43   7429.77    112.56
  61760                8.43   7429.11     88.44
  61761                8.43   7428.95     89.67
  61762                8.43   7428.97    104.84
  61763                8.43   7428.97    112.21
  61765                8.43   7429.02     79.30
  61767                8.43   7428.30     90.26
  61768                8.43   7427.70     92.16
  61769                8.43   7428.02     87.97
  61770                8.43   7427.50     94.24
  61771                8.43   7427.69     91.29
  61772                8.43   7428.00     79.29
  61774                8.43   7429.81    114.31
  61775                8.43   7429.79    119.50
  61777                8.43   7432.49     71.27
  61778                8.43   7432.49     71.27
  61780                8.43   7299.48     90.33
  61781                0.00   7299.48     89.34
  61782                8.43   7299.99     77.55
  61783                0.00   7299.99     76.67
  61784                8.43   7301.73     65.31
  61785                0.00   7301.73     64.33
  61786                8.43   7299.09     92.33
  61787                0.00   7299.09     91.44
  61788                8.43   7300.91     72.32
  61789                0.00   7300.91     71.27
  61790                0.00   7301.73     64.33
  61791                8.43   7429.91     97.02
  61792                8.43   7429.91     97.02
  61794                8.43   7429.96     95.74
  61795                8.43   7429.97     95.75
  61797                8.43   7429.96     88.38
  61799                8.43   7430.06     86.25
  61801                8.43   7430.09     94.50
  61803                8.43   7430.41     95.50
  61804                8.43   7430.41    102.87
  61806                8.43   7429.91     99.62
  61807                8.43   7429.91     99.62
  61809                8.43   7429.81    114.31
  61811                8.43   7429.81    119.94
  61813                8.43   7429.81    111.28
  61814                8.43   7429.82    103.91
  61815                8.43   7429.81    103.91
  61817                8.43   7429.81    116.91
  61818                8.43   7429.81    118.64
  61820                8.43   7429.81    121.67
  61822                8.43   7429.84    100.46
  61823                8.43   7429.90    108.28
  61824                8.43   7429.84    100.46
  61826                8.43   7429.90     95.72
  61827                8.43   7429.90     95.72
  61829                8.43   7430.07     98.39
  61830                8.43   7429.98     91.85
  61832                8.43   7429.98     81.02
  61834                8.43   7430.06     98.39
  61836                8.43   7430.45     89.02
  61837                8.43   7430.45     89.02
  61839                8.43   7430.97     87.95
  61841                8.43   7430.97     87.95
  61842                8.43   7430.96     91.41
  61843                8.43   7430.96     96.61
  61845                8.43   7430.96     84.48
  61847                8.43   7431.93     75.80
  61849                8.43   7432.06     83.22
  61850                8.43   7432.06     87.12
  61852                8.43   7432.05     79.32
  61854                8.43   7432.85     76.20
  61856                8.43   7432.60     79.12
  61857                8.43   7432.60     79.99
  61859                8.43   7432.25     85.03
  61861                8.43   7430.94     97.47
  61863                8.43   7431.65     89.54
  61864                8.43   7431.30    100.22
  61865                8.43   7431.65     87.37
  61866                8.43   7431.65     85.64
  61868                8.43   7431.65     89.54
  61870                8.43   7431.52     90.35
  61871                8.43   7431.51     90.35
  61873                8.43   7431.52     94.68
  61875                8.43   7431.30    102.82
  61877                8.43   7429.95     93.14
  61878                8.43   7430.57     86.91
  61879                8.43   7430.03     91.01
  61880                8.43   7429.95     96.17
  61882                8.43   7429.99     93.15
  61884                8.43   7430.46     83.39
  61886                8.43   7430.12     88.01
  61888                8.43   7429.81     96.98
  61889                8.43   7429.77    103.89
  61890                8.43   7429.76     97.39
  61893                8.43   7429.75     81.35
  61894                8.43   7429.81    101.31
  61896                8.43   7429.77    108.22
  61897                8.43   7429.77    110.82
  61899                8.43   7429.77    106.06
  61901                8.43   7429.77    103.03
  61903                8.43   7429.81     96.98
[...]
  22214               58.45      0.37      0.11
  22215               54.43      0.35      0.10
  22217              145.21      0.93      0.60
  22219              -15.06      0.10      0.01
  22220              -31.15      0.20      0.03
  22222              -19.08      0.12      0.01
  22223              -27.12      0.17      0.03
  22227              197.91      0.56      0.14
  22228                4.02      0.03      0.00
  22235              -19.77      0.13      0.02
  22238                1.89      0.01      0.00
  22239               -3.68      0.02      0.00
  22240              -15.74      0.10      0.01
  22245              -49.88      0.32      0.08
  22246             -125.54      0.36      0.06
  22249               -7.40      0.05      0.00
  22250               -0.65      0.00      0.00
  22251                7.98      0.02      0.00
  22253              -16.03      0.05      0.00
  22256               46.30      0.13      0.01
  22257              -16.86      0.11      0.01
  22259                1.60      0.01      0.00
  22260               57.98      0.16      0.01
  22261              -15.31      0.10      0.01
  22262               59.09      0.38      0.10
  22264              -35.49      0.10      0.01
  22266                4.02      0.03      0.00
  22268              -58.36      0.17      0.01
  22269                8.04      0.05      0.00
  22270              -25.76      0.16      0.02
  22271             -128.26      0.36      0.06
  22272               -0.63      0.00      0.00
  22274              -74.45      0.21      0.02
  22275             -132.28      0.38      0.07
  22277              -59.23      0.38      0.10
  22278              -41.37      0.26      0.05
  22279              -90.95      0.58      0.25
  22280              -95.57      0.27      0.04
  22282              107.55      0.69      0.34
  22283                4.02      0.03      0.00
  22294               94.45      0.27      0.04
  22295               -3.79      0.01      0.00
  22296              -11.83      0.03      0.00
  22299              -81.00      0.52      0.20
  22300               74.16      0.21      0.02
  22301                4.02      0.03      0.00
  22302               78.18      0.22      0.03
  22303               27.92      0.08      0.01
  22304              -37.10      0.24      0.05
  22307               30.65      0.20      0.03
  22308              -65.75      0.42      0.14
  22309              -48.68      0.31      0.08
  22310               18.59      0.12      0.01
  22311                8.04      0.05      0.00
  22312              -75.68      0.21      0.02
  22314                4.02      0.03      0.00
  22315             -168.87      0.48      0.11
  22316             -184.96      0.52      0.12
  22318               -0.73      0.00      0.00
  22319               20.67      0.13      0.02
  22322              -71.66      0.20      0.02
  22323               26.14      0.17      0.03
  22324             -420.89      1.19      0.56
  22325             -358.33      1.02      0.42
  22326              -61.43      0.39      0.12
  22327             -133.99      0.38      0.07
  22329              129.97      0.37      0.06
  22330                8.04      0.05      0.00
  22331                4.02      0.03      0.00
  22332             -146.06      0.41      0.08
  22336             -960.13      1.53      0.63
  22337               87.75      0.25      0.03
  22338              -28.15      0.18      0.03
  22339                4.02      0.03      0.00
  22341                1.63      0.01      0.00
  22342                5.84      0.04      0.00
  22343              -16.94      0.05      0.00
  22344               20.68      0.13      0.02
  22345                8.04      0.05      0.00
  22346              -22.12      0.14      0.02
  22347              -30.16      0.19      0.03
  22348               63.12      0.40      0.13
  22349               -8.44      0.05      0.00
  22350              -23.76      0.15      0.02
  22351               -7.48      0.05      0.00
  22352               28.01      0.18      0.02
  22354              -22.65      0.06      0.00
  22355             1516.02      1.08      0.20
  22356            -1742.83      1.24      0.26
  22357              103.02      0.66      0.32
  22358               45.79      0.29      0.07
  22359            -1987.89      1.41      0.33
  71049               96.73      0.62      0.28
  71100             1509.40      9.63     45.41
  71101                8.43      0.05      0.00
  71102                8.43      0.05      0.00
  71461              113.31      0.72      0.37
  71463              163.69      1.04      0.75
  71465              145.14      0.93      0.59
  71466              368.85      2.35      3.34
  71467             1086.00      6.93     24.68
  71468             3275.86      5.23      6.13
  71469              345.25      2.20      2.96
  71470             1678.28      4.76      7.33
  71471             1669.85      4.74      7.26
  71472                0.00      0.00      0.00
  71473              353.69      2.26      3.09
  71474               -0.00      0.00      0.00
  71475             2251.59      6.39     12.63
  71476                8.43      0.05      0.00
  71477               -0.00      0.00      0.00
  71479              247.43      1.58      1.60
  71480                0.00      0.00      0.00
  71481              255.86      1.63      1.70
  71482             -749.85      4.79     12.43
  71483              168.47      1.08      0.78
  71484              767.98      4.90     12.99
  71485              390.59      2.49      3.71
  71486              382.15      2.44      3.56
  71487             -328.45      2.10      2.70
  71488               -0.00      0.00      0.00
  71489             -727.02      4.64     11.74
  71490                0.00      0.00      0.00
  71493               -0.00      0.00      0.00
  71495               -0.00      0.00      0.00
  71496             -651.12      4.16      9.57
  71497             -310.18      1.98      2.42
  71498             -301.74      1.93      2.31
  71499                0.00      0.00      0.00
  71500             -357.81      2.28      3.16
  71501             -381.71      2.44      3.56
  71502              -54.66      0.35      0.10
  71503                8.43      0.05      0.00
  71504               -0.00      0.00      0.00
  71505             -390.14      2.49      3.71
  71506                0.00      0.00      0.00
  71507             -320.02      2.04      2.57
  71508              -63.09      0.40      0.13
  71509                0.00      0.00      0.00
  71510                0.00      0.00      0.00
  71511             -386.27      2.47      3.64
  71512              539.49      3.44      6.75
  71513              245.37      1.57      1.57
  71514             -594.21      3.79      8.08
  71515             -182.63      1.17      0.91
  71517            -1236.78      3.51      4.16
  71518              123.17      0.79      0.44
  71519             1136.36      3.22      3.56
  71520             -343.14      2.19      2.92
  71522              -58.25      0.37      0.11
  71523              301.76      1.93      2.30
  71524              233.58      1.49      1.43
  71525              186.09      1.19      0.94
  71526               52.59      0.34      0.09
  71527               -0.00      0.00      0.00
  71528              135.63      0.87      0.52
  71529             2234.73      6.34     12.45
  71530             1365.54      3.87      5.00
  71531              402.09      2.57      3.92
  71532              275.58      1.76      1.95
  71533               -0.00      0.00      0.00
  71534                8.43      0.05      0.00
  71535             2040.74      5.79     10.52
  71536             1538.35      4.36      6.24
  71537             -182.25      1.16      0.91
  71538               -0.00      0.00      0.00
  71539                8.43      0.05      0.00
  71540              224.42      1.43      1.33
  71541             -235.81      1.51      1.46
  71542             -244.24      1.56      1.56
  71543               -0.00      0.00      0.00
  71544             1931.10      5.48      9.50
  71545             1140.77      7.28     27.04
  71546            -1102.87      7.04     25.40
  71547               29.47      0.19      0.03
  71548              773.46      4.94     13.16
  71549             -731.29      4.67     11.87
  71550                0.00      0.00      0.00
  71551                8.43      0.05      0.00
  71552               22.49      0.14      0.02
  71553               -0.00      0.00      0.00
  71554               19.94      0.13      0.01
  71555             -318.62      2.03      2.55
  71556               -0.00      0.00      0.00
  71557                8.43      0.05      0.00
  71558            -2151.61      1.53      0.38
  71559               -0.00      0.00      0.00
  71560             2543.65      1.80      0.51
  71561                0.00      0.00      0.00
  71562            -3539.97      2.51      0.95
  71563                0.00      0.00      0.00
  71564            -1996.32      1.42      0.32
  71565               -0.00      0.00      0.00
  71566            -3523.10      2.50      0.95
  71567               -0.00      0.00      0.00
  71568                0.00      0.00      0.00
  71569               93.46      0.60      0.26
  71570                8.43      0.05      0.01
  71571               -0.00      0.00      0.00
  71572              110.33      0.70      0.36
  71573              127.19      0.81      0.47
  71574                0.00      0.00      0.00
  71575               -0.00      0.00      0.00
  71576                8.43      0.05      0.00
  71577                0.00      0.00      0.00
  71578                8.43      0.05      0.00
  71579             -275.67      1.76      1.95
  71580                0.00      0.00      0.00
  71581             -284.10      1.81      2.06
  71582               -0.00      0.00      0.00
  71583                8.43      0.05      0.00
  71584             -106.30      0.68      0.33
  71585               -0.00      0.00      0.00
  71586                8.43      0.05      0.00
  71587              -69.50      0.44      0.14
  71588               -0.00      0.00      0.00
  71589               -0.00      0.00      0.00
  71590                8.43      0.05      0.00
  71591              -61.06      0.39      0.12
  71592               26.62      0.17      0.02
  71593               14.05      0.09      0.02
  71594                0.00      0.00      0.00
  71595               30.14      0.19      0.03
  71596               -4.84      0.03      0.00
  71597               -0.00      0.00      0.00
  71598                8.43      0.05      0.00
  71599               -0.00      0.00      0.00
  71600                8.43      0.05      0.00
  71601              -16.16      0.10      0.01
  71602               -9.51      0.06      0.00
  71603              -66.66      0.43      0.14
  71604               42.54      0.27      0.06
  71605              -17.95      0.11      0.02
  71606               -0.00      0.00      0.00
  71607              -10.88      0.07      0.00
  71608               50.98      0.33      0.09
  71609               -0.00      0.00      0.00
  71610              -82.07      0.52      0.21
  71611               70.29      0.45      0.16
  71612               87.16      0.56      0.23
  71613                0.00      0.00      0.00
  71614                8.43      0.05      0.00
  71615               -0.00      0.00      0.00
  71616              -90.50      0.58      0.26
  71617               -0.00      0.00      0.00
  71618              202.96      1.30      1.10
  71619               -0.00      0.00      0.00
  71620                8.43      0.05      0.00
  71621             -300.97      1.92      2.29
  71622               -0.00      0.00      0.00
  71623                8.43      0.05      0.00
  71624               25.30      0.16      0.02
  71625               -0.00      0.00      0.00
  71626                8.43      0.05      0.00
  71627               -0.00      0.00      0.00
  71628                8.43      0.05      0.00
  71629              -49.82      0.32      0.09
  71630                0.00      0.00      0.00
  71631              -83.55      0.53      0.21
  71632               -0.00      0.00      0.00
  71633                8.43      0.05      0.00
  71634               -0.00      0.00      0.00
  71635                8.43      0.05      0.00
  71636              327.06      2.09      2.68
  71637                0.00      0.00      0.00
  71638             1253.65      3.56      4.27
  71639                0.00      0.00      0.00
  71640                8.43      0.05      0.00
  71641            -1228.35      3.48      4.11
  71642               -0.00      0.00      0.00
  71643               76.13      0.49      0.19
  71644               -0.00      0.00      0.00
  71645              405.39      2.59      3.98
  71646               84.56      0.54      0.22
  71647             -154.02      0.98      0.66
  71648             -244.92      1.56      1.56
  71649              234.50      1.50      1.44
  71650               -0.00      0.00      0.00
  71651                8.43      0.05      0.00
  71652              242.94      1.55      1.54
  71653                0.00      0.00      0.00
  71654               27.29      0.17      0.03
  71655               44.16      0.28      0.06
  71656               -0.00      0.00      0.00
  71657                8.43      0.05      0.00
  71658                0.00      0.00      0.00
  71659                0.00      0.00      0.00
  71660                8.43      0.05      0.00
  71661              376.79      2.40      3.48
  71662             1776.06      5.04      8.14
  71663             1790.46      5.08      8.26
  71664              441.80      2.82      4.67
  71665                0.00      0.00      0.00
  71666                8.43      0.05      0.00
  71667              393.66      2.51      3.78
  71668               -0.00      0.00      0.00
  71669              450.23      2.87      4.83
  71670               -0.00      0.00      0.00
  71671              433.36      2.77      4.50
  71672               -0.00      0.00      0.00
  71673              177.43      1.13      0.86
  71674             -126.82      0.81      0.46
  71675              174.06      1.11      0.83
  71676             -267.15      1.71      1.84
  71677               -0.00      0.00      0.00
  71678               -0.00      0.00      0.00
  71679                8.43      0.05      0.00
  71680               -0.00      0.00      0.00
  71681                8.43      0.05      0.00
  71682               25.30      0.16      0.02
  71683               -0.00      0.00      0.00
  71684                8.43      0.05      0.00
  71685               -0.00      0.00      0.00
  71686                8.43      0.05      0.00
  71687             -135.26      0.86      0.52
  71688                0.00      0.00      0.00
  71689              182.50      1.16      0.90
  71690                0.00      0.00      0.00
  71691               -0.00      0.00      0.00
  71692                8.43      0.05      0.00
  71693             -284.02      1.81      2.06
  71694               -0.00      0.00      0.00
  71695                0.00      0.00      0.00
  71696                8.43      0.05      0.00
  71697              236.93      1.51      1.48
  71698                0.00      0.00      0.00
  71699             -124.04      0.79      0.44
  71700                0.00      0.00      0.00
  71701             -132.47      0.85      0.49
  71702               -0.00      0.00      0.00
  71703             -174.20      1.11      0.83
  71704               -0.00      0.00      0.00
  71705             -585.77      3.74      7.88
  71706               -0.00      0.00      0.00
  71707                0.00      0.00      0.00
  71708                8.43      0.05      0.00
  71709              227.50      1.45      1.36
  71710                0.00      0.00      0.00
  71711              219.07      1.40      1.27
  71712               -0.00      0.00      0.00
  71713                8.43      0.05      0.00
  71714              202.20      1.29      1.10
  71715                0.00      0.00      0.00
  71716                8.43      0.05      0.01
  71717              151.60      0.97      0.64
  71718              185.33      1.18      0.93
  71719                8.43      0.05      0.01
  71720               -0.00      0.00      0.00
  71721                0.00      0.00      0.00
  71722                8.43      0.05      0.00
  71723               -0.00      0.00      0.00
  71724                8.43      0.05      0.00
  71725             -722.86      4.61     11.61
  71726               -0.00      0.00      0.00
  71727                0.00      0.00      0.00
  71728              743.89      4.75     12.25
  71729              781.89      4.99     13.43
  71730               -0.00      0.00      0.00
  71731               33.74      0.22      0.04
  71732            -2143.18      1.52      0.38
  71733             2535.21      1.80      0.51
  71734            -3659.81      2.60      1.01
  71735            -3531.54      2.50      0.95
  71736            -5204.51      3.69      1.95
  71737             5212.94      3.70      1.95
  71738               52.60      0.34      0.09
  71739              128.42      0.82      0.47
  71740                0.00      0.00      0.00
  71741                8.43      0.05      0.00
  71742               -0.00      0.00      0.00
  71743                8.43      0.05      0.00
  71744             -227.37      1.45      1.37
  71745               -0.00      0.00      0.00
  71746             -252.67      1.61      1.66
  71747                0.00      0.00      0.00
  71748              241.29      1.54      1.52
  71749               -0.00      0.00      0.00
  71750                8.43      0.05      0.00
  71751              207.55      1.32      1.15
  71752               -0.00      0.00      0.00
  71753                8.43      0.05      0.00
  71754             -173.82      1.11      0.83
  71755                0.00      0.00      0.00
  71756             -190.68      1.22      1.00
  71757               -0.00      0.00      0.00
  71758             1589.14      4.51      6.62
  71759            -8488.80      6.02      4.82
  71760              735.46      4.69     11.99
  71761             -634.25      4.05      9.12
  71762             -634.25      4.05      9.12
  71763              -87.68      0.56      0.23
  71764              -27.91      0.18      0.03
  71765               -0.00      0.00      0.00
  80001               -0.01      0.00      0.00
  80002               -0.00      0.00      0.00
  80003               -0.01      0.00      0.00
  80004               -0.00      0.00      0.00
  80005               -0.01      0.00      0.00
  80006               -0.00      0.00      0.00
  80007               -0.00      0.00      0.00
  80009               -0.00      0.00      0.00
  80010               -0.01      0.00      0.00
  80011               -0.01      0.00      0.00
  80012               -0.02      0.00      0.00
  80013               -0.02      0.00      0.00
  5001                 0.00      0.00      0.00  Pump
  5002                 0.00      0.00      0.00  Pump
  5003                 0.00      0.00      0.00  Pump
  5004                 0.00      0.00      0.00  Pump
  5005                 0.00      0.00      0.00  Pump
  5006              3275.86      0.00    -26.31  Pump
  4001                 0.00      0.00      0.00  PRV
  4002                 0.00      0.00      0.00  PRV
  4003                 0.00      0.00      0.00  PRV
  4004              3275.86      8.43      8.82  PRV
   