  Page 1                                    Wed Aug 15 17:09:39 2018

  ******************************************************************
  *                           E P A N E T                          *
  *                   Hydraulic and Water Quality                  *
  *                   Analysis for Pipe Networks                   *
  *                         Version 2.00.12                        *
  ******************************************************************
  
  Scenario: Average Day  
  Date: 8/16/2016 4:09:48 PM  
   
      Input Data File ................... ../Data/final_input.inp
      Number of Junctions................ 299
      Number of Reservoirs............... 1
      Number of Tanks ................... 0
      Number of Pipes ................... 316
      Number of Pumps ................... 0
      Number of Valves .................. 2
      Headloss Formula .................. Hazen-Williams
      Hydraulic Timestep ................ 1.00 hrs
      Hydraulic Accuracy ................ 0.001000
      Status Check Frequency ............ 3
      Maximum Trials Checked ............ 10
      Damping Limit Threshold ........... 0.000000
      Maximum Trials .................... 40
      Quality Analysis .................. Chemical
      Water Quality Time Step ........... 60.00 min
      Water Quality Tolerance ........... 0.01 mg/L
      Specific Gravity .................. 1.00
      Relative Kinematic Viscosity ...... 1.00
      Relative Chemical Diffusivity ..... 1.00
      Demand Multiplier ................. 1.00
      Total Duration .................... 24.00 hrs
      Reporting Criteria:
         All Nodes
         All Links
   
   
  Hydraulic Status:
  -----------------------------------------------------------------------
     0:00:00: Balanced after 8 trials
     0:00:00: Reservoir 329219 is emptying
   
     1:00:00: Balanced after 1 trials
   
     2:00:00: Balanced after 3 trials
   
     3:00:00: Balanced after 1 trials
   
     4:00:00: Balanced after 3 trials
   
     5:00:00: Balanced after 1 trials
   
     6:00:00: Balanced after 3 trials
   
     7:00:00: Balanced after 1 trials
   
     8:00:00: Balanced after 3 trials
   
     9:00:00: Balanced after 1 trials
   
    10:00:00: Balanced after 3 trials
   
    11:00:00: Balanced after 1 trials
   
    12:00:00: Balanced after 3 trials
   
    13:00:00: Balanced after 1 trials
   
    14:00:00: Balanced after 3 trials
   
    15:00:00: Balanced after 1 trials
   
    16:00:00: Balanced after 3 trials
   
    17:00:00: Balanced after 1 trials
   
    18:00:00: Balanced after 3 trials
   
    19:00:00: Balanced after 1 trials
   
    20:00:00: Balanced after 3 trials
   
    21:00:00: Balanced after 1 trials
   
    22:00:00: Balanced after 3 trials
   
    23:00:00: Balanced after 1 trials
   
    24:00:00: Balanced after 3 trials
   
   
  Node Results at 0:00:00 hrs:
  --------------------------------------------------------
                     Demand      Head  Pressure  Chemical
  Node                  gpm        ft       psi      mg/L
  --------------------------------------------------------
  51956                0.18    300.29     71.96      0.00
  51961                0.27    300.29     72.77      0.00
  52038                1.45    300.29     76.23      0.00
  52080                1.54    300.29     87.09      0.00
  52086                0.46    300.29     86.89      0.00
  52087                0.00    300.29     88.56      0.00
  52108                1.15    300.29     70.37      0.00
  52157                0.00    300.29     94.62      0.00
  52160                0.00    300.29     95.18      0.00
  52166                0.16    300.29     93.64      0.00
  52174                1.16    300.29     93.56      0.00
  52179                0.00    300.29     69.39      0.00
  52188                0.43    300.29     69.31      0.00
  52189                0.00    317.00     92.39      0.00
  52197                0.38    300.29     66.85      0.00
  52198                0.50    300.29     67.22      0.00
  52222                0.30    300.29     65.82      0.00
  52254                0.00    300.31     74.93      0.00
  52258                0.00    316.99     82.56      0.00
  52261                0.00    300.31     74.51      0.00
  52262                0.00    300.31     74.16      0.00
  52264                0.00    300.31     74.26      0.00
  52307                0.11    300.29     65.57      0.00
  52344                0.22    300.29     69.32      0.00
  52350                0.61    300.29     69.32      0.00
  52359                0.12    300.29     71.22      0.00
  52360                0.00    300.29     71.56      0.00
  52392                0.00    300.30     70.45      0.00
  52407                0.79    300.29     84.88      0.00
  52413                0.56    300.29     86.51      0.00
  52417                0.00    300.30     69.06      0.00
  52418                0.00    300.30     68.97      0.00
  52423                1.30    300.29     86.61      0.00
  52438                1.83    300.28     86.61      0.00
  52439                1.62    300.26     98.66      0.00
  52451                0.06    300.26     98.50      0.00
  52460                0.57    300.28     86.16      0.00
  52472                1.18    300.28     82.62      0.00
  52484                0.00    300.26     92.36      0.00
  52501                1.05    300.26     91.91      0.00
  52509                0.75    300.26    103.90      0.00
  52512                0.08    300.26    103.90      0.00
  52528                1.32    300.28     81.42      0.00
  52534                0.21    300.26     97.03      0.00
  52560                0.08    300.26     89.20      0.00
  52575                1.13    300.26     88.64      0.00
  52578                0.00    300.26    101.91      0.00
  52581                1.94    300.26     89.20      0.00
  52589                0.00    300.26    100.77      0.00
  52603                0.08    300.26    100.84      0.00
  52605                0.43    300.26    101.91      0.00
  52622                0.22    300.28     67.24      0.00
  52628                1.58    300.27     87.21      0.00
  52642                0.43    300.28     71.90      0.00
  52655                0.35    300.26     96.92      0.00
  52660                0.56    300.28     91.15      0.00
  52685                0.41    300.28     90.33      0.00
  52702                0.21    300.28     89.20      0.00
  52704                0.37    300.27     74.57      0.00
  52709                0.27    300.26     95.69      0.00
  52712                0.22    300.28     79.73      0.00
  52718                0.71    300.27     81.68      0.00
  52721                0.09    300.28     68.37      0.00
  52723                0.22    300.28     66.43      0.00
  52727                0.00    300.28     88.39      0.00
  52728                0.11    300.27     82.28      0.00
  52732                0.00    300.28     66.10      0.00
  52752                1.26    300.26     88.33      0.00
  52753                0.47    300.28     87.02      0.00
  52760                1.07    300.28     86.61      0.00
  52761                1.08    300.26     88.47      0.00
  52778                0.33    300.27     83.71      0.00
  52808                0.00    300.27     92.72      0.00
  52818                0.53    300.27     93.00      0.00
  52830                0.07    300.28     79.19      0.00
  52833                0.58    300.28     77.09      0.00
  52839                0.24    300.27     86.41      0.00
  52857                0.23    300.27     81.86      0.00
  52860                0.41    300.26     97.86      0.00
  52861                0.49    300.27     80.86      0.00
  52876                0.13    300.26     98.35      0.00
  52894                1.04    300.27     97.25      0.00
  52895                0.43    300.26     91.77      0.00
  52896                0.07    300.27     96.17      0.00
  52904                0.83    300.27     99.18      0.00
  52909                0.00    300.26    120.76      0.00
  52920                0.00    300.26    120.33      0.00
  52982                0.86    300.26     82.30      0.00
  52983                0.83    300.26     98.83      0.00
  52984                0.45    300.26     99.25      0.00
  53006                0.15    300.25     99.64      0.00
  53008                0.11    300.25     98.96      0.00
  53015                0.05    300.25     99.57      0.00
  53021                0.53    300.25     99.43      0.00
  53030                1.33    300.26     87.42      0.00
  53067                0.54    300.25    105.16      0.00
  53074                0.67    300.25     92.17      0.00
  53085                1.07    300.25    105.75      0.00
  53105                0.12    300.26     93.13      0.00
  53110                0.00    300.26     87.46      0.00
  53112                0.55    300.26     87.46      0.00
  53234                0.85    300.25     81.54      0.00
  53277                0.24    300.26     86.45      0.00
  53282                0.00    300.26     86.60      0.00
  53297                0.31    300.25    100.06      0.00
  53306                0.41    300.25     93.16      0.00
  53310                1.14    300.26     80.27      0.00
  53320                1.44    300.26     80.19      0.00
  53356                0.65    300.26     79.89      0.00
  53380                0.20    300.26     82.48      0.00
  53385                0.65    300.26     82.57      0.00
  53395                0.49    300.26     83.14      0.00
  53397                0.38    300.25     94.55      0.00
  53402                0.00    300.25     94.69      0.00
  53426                0.39    300.25     88.37      0.00
  53509                0.00    300.25     96.73      0.00
  53535                0.20    300.25    101.20      0.00
  53565                0.54    300.25    104.13      0.00
  53630                0.46    300.25     95.57      0.00
  53649                0.52    300.25     80.24      0.00
  53650                0.24    300.25     93.55      0.00
  53651                0.64    300.25     96.01      0.00
  53655                0.00    300.25     79.81      0.00
  53717                1.08    300.25     94.38      0.00
  53722                0.12    300.25     94.64      0.00
  111671               0.29    300.29     70.55      0.00
  111679               0.08    300.29     75.36      0.00
  111686               0.32    300.29     72.51      0.00
  111754               1.81    300.29     84.93      0.00
  111804               0.00    300.29     87.61      0.00
  111828               0.72    300.29     70.14      0.00
  111877               0.00    300.29     94.48      0.00
  111879               0.00    300.29     95.95      0.00
  111884               0.07    300.29     94.81      0.00
  111890               0.00    300.29     93.80      0.00
  111909               0.19    300.29     69.65      0.00
  111915               0.32    300.29     67.47      0.00
  111924               1.61    300.29     66.72      0.00
  111925               0.57    300.29     72.99      0.00
  111938               1.16    300.29     65.59      0.00
  111970               0.00    317.00     82.46      0.00
  111973               0.25    300.29     72.77      0.00
  111974               0.00    300.31     74.51      0.00
  111976               0.42    300.31     74.11      0.00
  111978               0.00    316.99     83.27      0.00
  111988               2.88    300.28     97.21      0.00
  111999               0.00    300.31     77.90      0.00
  112008               1.54    300.29     64.93      0.00
  112022               0.24    300.29     65.32      0.00
  112029               1.80    300.29     65.92      0.00
  112064               0.44    300.29     69.32      0.00
  112079               0.00    300.29     71.34      0.00
  112105               0.15    300.30     70.37      0.00
  112110               0.00    300.30     70.86      0.00
  112111               0.51    300.29     84.94      0.00
  112122               2.43    300.28     93.55      0.00
  112127               0.59    300.29     86.75      0.00
  112131               0.22    300.30     68.91      0.00
  112133               0.21    300.30     68.82      0.00
  112151               0.75    300.26     97.84      0.00
  112162               0.00    300.28     86.60      0.00
  112164               0.15    300.26     98.71      0.00
  112169               0.00    300.30     66.45      0.00
  112184               0.00    300.26     93.57      0.00
  112189               0.86    300.29     68.51      0.00
  112195               0.23    300.28     82.70      0.00
  112209               0.00    300.26     91.60      0.00
  112221               0.88    300.26    103.03      0.00
  112227               0.06    300.26    103.90      0.00
  112250               0.40    300.28     81.42      0.00
  112251               0.63    300.26     96.98      0.00
  112258               1.45    300.26     92.66      0.00
  112273               0.35    300.26    102.87      0.00
  112285               0.09    300.26     89.20      0.00
  112300               0.64    300.29     65.05      0.00
  112307               0.00    300.26    101.30      0.00
  112325               0.49    300.26    104.76      0.00
  112327               0.73    300.28     66.80      0.00
  112338               0.84    300.28     66.74      0.00
  112340               0.99    300.28     67.26      0.00
  112354               0.58    300.28     71.90      0.00
  112364               0.68    300.28     69.40      0.00
  112368               0.16    300.26     97.03      0.00
  112379               0.11    300.28     90.58      0.00
  112382               1.74    300.25     92.02      0.00
  112395               0.50    300.27     72.53      0.00
  112400               0.00    300.28     90.54      0.00
  112412               0.68    300.28     89.20      0.00
  112415               1.08    300.27     73.63      0.00
  112422               0.20    300.26     95.27      0.00
  112424               0.43    300.27     74.93      0.00
  112427               0.00    300.26     98.21      0.00
  112431               1.19    300.26     98.05      0.00
  112432               0.28    300.26    100.55      0.00
  112435               0.18    300.28     80.01      0.00
  112438               0.07    300.28     67.11      0.00
  112445               0.65    300.28     88.37      0.00
  112447               0.31    300.27     81.78      0.00
  112457               0.10    300.28     64.38      0.00
  112469               0.25    300.28     87.47      0.00
  112473               0.14    300.26     88.78      0.00
  112510               0.44    300.27     84.29      0.00
  112528               0.26    300.27     92.51      0.00
  112550               0.65    300.28     79.14      0.00
  112553               0.85    300.28     77.09      0.00
  112558               0.31    300.28     78.99      0.00
  112559               0.49    300.28     77.09      0.00
  112565               0.64    300.26     99.57      0.00
  112570               0.16    300.27     86.29      0.00
  112576               0.15    300.27     80.88      0.00
  112588               0.82    300.26     97.37      0.00
  112613               0.68    300.26    103.41      0.00
  112615               0.69    300.26     91.25      0.00
  112617               0.23    300.27     97.28      0.00
  112637               0.00    300.26    120.33      0.00
  112641               0.00    300.26    120.33      0.00
  112642               0.00    300.26    120.33      0.00
  112661               1.01    300.26     94.18      0.00
  112665               1.44    300.25     75.75      0.00
  112680               0.51    300.25     97.84      0.00
  112695               0.53    300.25    102.42      0.00
  112697               0.52    300.26     82.72      0.00
  112703               0.82    300.26     99.14      0.00
  112724               0.21    300.25     99.57      0.00
  112725               0.55    300.25     99.57      0.00
  112732               0.35    300.25     99.65      0.00
  112736               0.36    300.26     87.77      0.00
  112747               1.12    300.26     96.51      0.00
  112779               0.57    300.25    109.77      0.00
  112783               0.06    300.25     92.06      0.00
  112796               0.58    300.25    105.38      0.00
  112814               0.52    300.26     93.30      0.00
  112817               0.34    300.26     87.46      0.00
  112830               0.82    300.26     91.27      0.00
  112852               1.05    300.26     90.92      0.00
  112925               0.72    300.25     81.79      0.00
  112963               0.82    300.26     83.60      0.00
  112980               0.58    300.26     86.56      0.00
  112983               0.93    300.25    100.08      0.00
  112988               0.50    300.25     93.39      0.00
  113014               0.12    300.26     79.94      0.00
  113031               0.52    300.25     98.70      0.00
  113062               0.36    300.26     79.65      0.00
  113085               0.00    300.26     82.62      0.00
  113102               0.32    300.25     94.79      0.00
  113115               0.83    300.25     88.29      0.00
  113141               0.58    300.25     87.62      0.00
  113205               0.63    300.25     96.49      0.00
  113213               0.09    300.25     96.51      0.00
  113235               1.01    300.25    101.00      0.00
  113256               0.97    300.25     90.19      0.00
  113276               0.79    300.25    116.83      0.00
  113349               0.00    300.25     95.98      0.00
  113361               0.44    300.25     80.59      0.00
  113363               0.22    300.25     75.11      0.00
  113433               0.03    300.25     94.66      0.00
  113454               0.63    300.25     92.54      0.00
  113487               0.47    300.25     93.98      0.00
  125982               0.00    317.00     84.48      0.00
  125988               0.21    300.26     97.84      0.00
  125990               1.60    300.26    103.98      0.00
  125992               0.84    300.28     69.42      0.00
  125994               0.56    300.26    104.38      0.00
  125998               0.17    300.26     98.79      0.00
  126011               0.46    300.25     98.35      0.00
  126016               1.72    300.25    111.87      0.00
  126024               0.35    300.25     92.40      0.00
  136023               0.00    300.29     92.79      0.00
  136028               0.59    300.29     68.52      0.00
  136051               0.14    300.29     72.65      0.00
  136079               0.29    300.26     96.98      0.00
  136083               0.31    300.26     89.27      0.00
  136090               0.29    300.26     99.36      0.00
  136101               1.86    300.28     86.69      0.00
  136103               0.58    300.26     99.99      0.00
  136121               0.87    300.27     88.23      0.00
  136122               0.71    300.28     70.55      0.00
  136124               0.38    300.27     97.98      0.00
  136138               1.15    300.27     78.82      0.00
  136141               0.17    300.27     83.05      0.00
  136178               0.89    300.25     95.99      0.00
  136188               0.35    300.26     87.46      0.00
  136196               1.66    300.26     77.15      0.00
  136233               0.67    300.26     82.57      0.00
  136254               0.00    300.25    104.55      0.00
  297542               0.00    317.00     82.09      0.00
  297543               0.00    300.31     74.58      0.00
  297549               0.00    316.95     82.40      0.00
  297550               0.00    300.36     74.75      0.00
  299166               0.00    300.31     74.68      0.00
  299481               0.00    316.99     82.50      0.00
  303220               0.00    316.63     82.10      0.00
  303421               0.00    300.31     74.94      0.00
  303665               0.00    316.99     82.36      0.00
  304413               0.00    300.69     74.99      0.00
  140785-A             0.00    316.99     84.94      0.00
  140785-B             0.00    300.31     77.73      0.00
  294718-A             0.00    316.33     84.65      0.00
  294718-B             0.00    300.86     77.96      0.00
  329219            -141.15    317.00      0.00      0.00  Reservoir
   
   
  Link Results at 0:00:00 hrs:
  ----------------------------------------------
                       Flow  Velocity  Headloss
  Link                  gpm       fps   /1000ft
  ----------------------------------------------
  143444              -0.00      0.00      0.00
  143912             141.15      0.58      0.18
  144721             141.15      0.58      0.18
  145008               0.00      0.00      0.00
  145028               1.57      0.07      0.04
  145354               0.00      0.00      0.00
  147226            -140.52      0.22      0.02
  148233               1.05      0.05      0.01
  149291               0.32      0.01      0.00
  150009              -1.19      0.01      0.00
  150219              -0.18      0.00      0.00
  150964              -0.00      0.00      0.00
  152494             141.15      0.58      0.18
  152943              13.56      0.02      0.00
  153988               0.00      0.00      0.00
  157992               0.32      0.01      0.00
  158333              -0.00      0.00      0.00
  159184             140.73      0.29      0.03
  159877               0.00      0.00      0.00
  160015               0.10      0.00      0.00
  161931               0.09      0.00      0.00
  162016               0.00      0.00      0.00
  162162              21.82      0.14      0.02
  162650              -0.00      0.00      0.00
  164474               0.00      0.00      0.00
  166868              16.59      0.11      0.01
  167181               3.36      0.02      0.00
  168053              -3.04      0.03      0.00
  169296              10.72      0.07      0.01
  170161               0.76      0.02      0.00
  171658              -1.84      0.08      0.05
  172188               0.94      0.04      0.01
  172659              41.27      0.07      0.00
  173485              -1.85      0.01      0.00
  173495              43.54      0.12      0.01
  173901              -1.23      0.01      0.00
  174109               0.00      0.00      0.00
  174294               1.02      0.01      0.00
  174340               0.04      0.00      0.00
  174548               0.09      0.00      0.00
  174604              -1.71      0.02      0.00
  174676               0.27      0.00      0.00
  174829               0.23      0.00      0.00
  175202               0.00      0.00      0.00
  175473               0.45      0.01      0.00
  176128               0.97      0.04      0.01
  177197               1.06      0.05      0.01
  177579              30.58      0.05      0.00
  177679               0.69      0.03      0.00
  178318              -3.75      0.02      0.00
  178673               0.00      0.00      0.00
  178851               0.00      0.00      0.00
  179839               4.00      0.05      0.00
  180099               1.06      0.05      0.01
  181243               2.46      0.02      0.00
  182760              10.62      0.07      0.01
  183161               0.00      0.00      0.00
  183593              -1.63      0.00      0.00
  183889               9.85      0.06      0.01
  184240               0.31      0.01      0.00
  184513               3.49      0.04      0.00
  184533              -2.55      0.03      0.00
  185922               8.23      0.05      0.00
  186466              -5.82      0.07      0.01
  186932               8.06      0.05      0.00
  187099               5.21      0.03      0.00
  187760               6.49      0.04      0.00
  187798               4.95      0.06      0.00
  187831               0.39      0.02      0.00
  188736               3.44      0.02      0.00
  188759               2.11      0.01      0.00
  189108               5.17      0.06      0.01
  189509               7.42      0.05      0.00
  189798             -11.46      0.07      0.01
  190055               1.65      0.02      0.00
  190065               0.49      0.02      0.00
  190082               2.08      0.09      0.03
  190103              -2.97      0.02      0.00
  190148               0.87      0.04      0.01
  190359               0.83      0.04      0.01
  190375            -141.15      0.23      0.01
  191104              11.53      0.03      0.00
  191141              -0.22      0.00      0.00
  191349              -1.95      0.02      0.00
  191926              -0.59      0.00      0.00
  191973               0.47      0.00      0.00
  192337              12.57      0.08      0.00
  193948              -1.71      0.01      0.00
  194063               1.05      0.05      0.01
  194408             -11.14      0.07      0.01
  194598              -2.30      0.10      0.04
  195346              -4.38      0.05      0.00
  195626               3.76      0.02      0.00
  195662              -2.32      0.03      0.00
  196093               0.68      0.03      0.00
  196299               1.11      0.05      0.01
  196979               1.86      0.01      0.00
  197217               3.74      0.04      0.00
  197420               1.94      0.02      0.00
  197433             -11.46      0.07      0.01
  197530               1.07      0.05      0.01
  197756              -0.70      0.01      0.00
  197924              -3.24      0.04      0.00
  198273               6.82      0.04      0.00
  198617            -115.76      0.18      0.01
  198716               0.96      0.01      0.00
  198980              -8.09      0.05      0.00
  199197               3.35      0.02      0.00
  199425              22.24      0.06      0.00
  199623               1.91      0.02      0.00
  200989               0.10      0.00      0.00
  201266               1.46      0.02      0.00
  202587              41.10      0.07      0.00
  202720              13.56      0.09      0.01
  202812               0.35      0.00      0.00
  202906               2.04      0.02      0.00
  203220               2.72      0.03      0.00
  203413              -0.99      0.01      0.00
  204299               1.08      0.01      0.00
  204411               5.08      0.03      0.00
  204605               0.61      0.03      0.00
  205327               1.84      0.02      0.00
  206577               5.12      0.03      0.00
  207223              -4.06      0.05      0.00
  208053               0.82      0.01      0.00
  208177               3.00      0.03      0.00
  208867              44.11      0.07      0.00
  208926               0.96      0.01      0.00
  209334               2.36      0.02      0.00
  209600               0.00      0.00      0.00
  209681              -0.11      0.00      0.00
  209689               4.43      0.05      0.00
  210414               0.84      0.04      0.01
  210814               8.06      0.05      0.00
  210903               0.00      0.00      0.00
  211982               1.20      0.05      0.01
  212040               5.55      0.06      0.01
  212307               1.47      0.02      0.00
  212462               4.72      0.03      0.00
  213198               0.12      0.00      0.00
  213244              41.00      0.07      0.00
  213894               1.54      0.04      0.00
  214258              -1.86      0.01      0.00
  214343               2.54      0.03      0.00
  214803             -28.09      0.04      0.00
  215748              28.32      0.05      0.00
  215782               0.55      0.03      0.00
  216399              -0.00      0.00      0.00
  216800               0.29      0.00      0.00
  218565               3.00      0.03      0.00
  219177              10.72      0.07      0.00
  222581               0.28      0.01      0.00
  222897               3.79      0.04      0.00
  223500               0.07      0.00      0.00
  223515               5.06      0.06      0.01
  223565              21.66      0.14      0.02
  223595               5.17      0.03      0.00
  224325               0.98      0.01      0.00
  224457              11.45      0.03      0.00
  224694              16.59      0.11      0.01
  226076              -0.62      0.01      0.00
  226948               2.47      0.03      0.00
  227122               0.08      0.00      0.00
  227292             -56.79      0.09      0.00
  227701              -0.00      0.00      0.00
  228252              21.82      0.14      0.02
  228285               1.64      0.02      0.00
  228701              13.37      0.04      0.00
  229363               4.28      0.03      0.00
  229621               0.52      0.02      0.00
  230652               0.64      0.03      0.00
  230726               0.50      0.02      0.00
  231290             -11.14      0.03      0.00
  231666               4.33      0.05      0.00
  231795               0.82      0.04      0.01
  231836               0.58      0.03      0.00
  231862              -0.22      0.00      0.00
  232630               2.65      0.03      0.00
  233234               0.49      0.02      0.00
  234415               1.73      0.01      0.00
  234455               4.96      0.03      0.00
  234688              -1.35      0.01      0.00
  236434             141.15      0.23      0.02
  236811               8.83      0.06      0.00
  237041              -3.14      0.02      0.00
  237064              -1.08      0.01      0.00
  237168               0.57      0.03      0.00
  237177               0.75      0.02      0.00
  239445              -1.86      0.01      0.00
  240228               0.70      0.03      0.00
  240391               1.05      0.01      0.00
  240897               0.82      0.04      0.01
  241237             -27.92      0.08      0.00
  241472               0.68      0.03      0.00
  242304              -6.36      0.07      0.01
  242787              -5.46      0.03      0.00
  243710               0.55      0.01      0.00
  244154               5.40      0.03      0.00
  244199              87.37      0.14      0.01
  244291              -1.35      0.01      0.00
  244762               1.13      0.05      0.01
  245259               1.74      0.08      0.02
  245846               0.53      0.02      0.00
  246401               4.74      0.05      0.01
  246465               0.51      0.02      0.00
  248481               0.68      0.00      0.00
  250349              -7.89      0.05      0.00
  250496               2.20      0.01      0.00
  250804              10.13      0.06      0.00
  251045              -0.47      0.00      0.00
  251284               0.00      0.00      0.00
  251733              -8.66      0.06      0.00
  252796               5.36      0.03      0.00
  253204               5.97      0.04      0.00
  254126               1.58      0.02      0.00
  254662               3.50      0.04      0.00
  255356               2.67      0.02      0.00
  255518              40.29      0.06      0.00
  255539              32.87      0.09      0.01
  255739              10.23      0.07      0.00
  256669              31.00      0.05      0.00
  256794             -56.79      0.09      0.00
  256953               0.73      0.03      0.00
  257019            -116.32      0.19      0.01
  257297               1.05      0.01      0.00
  257785             -65.54      0.10      0.00
  258261             -28.56      0.08      0.00
  258447               4.32      0.03      0.00
  260582              24.56      0.07      0.00
  261100               0.88      0.02      0.00
  261233              11.82      0.08      0.01
  261270             -63.48      0.10      0.00
  261655              -0.04      0.00      0.00
  263969               2.39      0.03      0.00
  264001               7.95      0.05      0.00
  264770               3.27      0.04      0.00
  265551             -58.65      0.09      0.00
  265560               5.98      0.04      0.00
  265616               1.45      0.07      0.02
  265691               1.50      0.02      0.00
  265706              14.04      0.04      0.00
  265808              -2.33      0.01      0.00
  266194              16.45      0.10      0.01
  266841              -0.81      0.00      0.00
  266842              -0.81      0.00      0.00
  267929              72.01      0.11      0.01
  268077              -2.59      0.03      0.00
  269429               1.48      0.02      0.00
  269835              40.23      0.11      0.01
  270144              12.69      0.08      0.01
  270838               1.01      0.05      0.01
  272117            -113.71      0.18      0.01
  273407               8.52      0.05      0.00
  273419               7.53      0.05      0.00
  274062               1.12      0.05      0.01
  274243              -0.53      0.01      0.00
  275061               0.44      0.00      0.00
  275324               2.59      0.02      0.00
  275693               1.14      0.01      0.00
  275721               3.03      0.03      0.00
  276538             -30.02      0.09      0.00
  276808               0.86      0.01      0.00
  276846               4.63      0.03      0.00
  277145              -1.48      0.02      0.00
  277754              41.49      0.07      0.00
  278116               1.44      0.07      0.02
  278604               0.92      0.01      0.00
  279316              73.16      0.12      0.01
  279674               5.06      0.06      0.01
  279828               2.29      0.01      0.00
  279853               4.29      0.03      0.00
  279866              -5.82      0.02      0.00
  279993              15.69      0.04      0.00
  280028               1.86      0.01      0.00
  280625              -4.23      0.05      0.00
  280641               0.44      0.01      0.00
  280654               1.81      0.01      0.00
  281851               0.71      0.01      0.00
  281980               2.68      0.02      0.00
  282316             141.15      0.10      0.00
  283626            -118.48      0.19      0.01
  283705               6.86      0.04      0.00
  284682              -0.63      0.00      0.00
  284874               8.52      0.05      0.00
  285060              36.63      0.06      0.00
  286293               1.91      0.01      0.00
  287815            -140.73      0.22      0.02
  288039               3.10      0.04      0.00
  289269              43.05      0.12      0.01
  289311               0.64      0.01      0.00
  289801              -0.79      0.01      0.00
  289907              43.54      0.07      0.00
  289918             -10.09      0.06      0.01
  290654               0.65      0.01      0.00
  291176              -2.23      0.03      0.00
  291951              -0.67      0.01      0.00
  292098               9.49      0.06      0.00
  292348               5.67      0.04      0.00
  292497              -3.24      0.04      0.00
  292567              -0.47      0.00      0.00
  292791              -0.00      0.00      0.00
  293204               0.90      0.01      0.00
  293382              24.18      0.07      0.00
  310606               0.00      0.00      0.00
  310991             141.15      3.60     15.30
  311108             141.15      6.41     62.13
  311112             141.15      3.60     15.30
  312120               0.00      0.00      0.00
  312936             141.15      6.41     62.13
  313119              -0.00      0.00      0.00
  313285             141.15      6.41     62.13
  313352             141.15      6.41     62.13
  313450               0.00      0.00      0.00
  313498               0.00      0.00      0.00
  314563             141.15      0.58      0.18
  329220            -141.15      0.10      0.00
  140785               0.00      0.00      0.00  PRV
  294718             141.15      6.41     15.48  PRV
   
   
  Node Results at 1:00:00 hrs:
  --------------------------------------------------------
                     Demand      Head  Pressure  Chemical
  Node                  gpm        ft       psi      mg/L
  --------------------------------------------------------
  51956                0.18    300.29     71.96      0.00
  51961                0.27    300.29     72.77      0.00
  52038                1.45    300.29     76.23      0.00
  52080                1.54    300.29     87.09      0.00
  52086                0.46    300.29     86.89      0.00
  52087                0.00    300.29     88.56      0.00
  52108                1.15    300.29     70.37      0.00
  52157                0.00    300.29     94.62      0.00
  52160                0.00    300.29     95.18      0.00
  52166                0.16    300.29     93.64      0.00
  52174                1.16    300.29     93.56      0.00
  52179                0.00    300.29     69.39      0.00
  52188                0.43    300.29     69.31      0.00
  52189                0.00    317.00     92.39      0.00
  52197                0.38    300.29     66.85      0.00
  52198                0.50    300.29     67.22      0.00
  52222                0.30    300.29     65.82      0.00
  52254                0.00    300.31     74.93      0.00
  52258                0.00    316.99     82.56      0.00
  52261                0.00    300.31     74.51      0.00
  52262                0.00    300.31     74.16      0.00
  52264                0.00    300.31     74.26      0.00
  52307                0.11    300.29     65.57      0.00
  52344                0.22    300.29     69.32      0.00
  52350                0.61    300.29     69.32      0.00
  52359                0.12    300.29     71.22      0.00
  52360                0.00    300.29     71.56      0.00
  52392                0.00    300.30     70.45      0.00
  52407                0.79    300.29     84.88      0.00
  52413                0.56    300.29     86.51      0.00
  52417                0.00    300.30     69.06      0.00
  52418                0.00    300.30     68.97      0.00
  52423                1.30    300.29     86.61      0.00
  52438                1.83    300.28     86.61      0.00
  52439                1.62    300.26     98.66      0.00
  52451                0.06    300.26     98.50      0.00
  52460                0.57    300.28     86.16      0.00
  52472                1.18    300.28     82.62      0.00
  52484                0.00    300.26     92.36      0.00
  52501                1.05    300.26     91.91      0.00
  52509                0.75    300.26    103.90      0.00
  52512                0.08    300.26    103.90      0.00
  52528                1.32    300.28     81.42      0.00
  52534                0.21    300.26     97.03      0.00
  52560                0.08    300.26     89.20      0.00
  52575                1.13    300.26     88.64      0.00
  52578                0.00    300.26    101.91      0.00
  52581                1.94    300.26     89.20      0.00
  52589                0.00    300.26    100.77      0.00
  52603                0.08    300.26    100.84      0.00
  52605                0.43    300.26    101.91      0.00
  52622                0.22    300.28     67.24      0.00
  52628                1.58    300.27     87.21      0.00
  52642                0.43    300.28     71.90      0.00
  52655                0.35    300.26     96.92      0.00
  52660                0.56    300.28     91.15      0.00
  52685                0.41    300.28     90.33      0.00
  52702                0.21    300.28     89.20      0.00
  52704                0.37    300.27     74.57      0.00
  52709                0.27    300.26     95.69      0.00
  52712                0.22    300.28     79.73      0.00
  52718                0.71    300.27     81.68      0.00
  52721                0.09    300.28     68.37      0.00
  52723                0.22    300.28     66.43      0.00
  52727                0.00    300.28     88.39      0.00
  52728                0.11    300.27     82.28      0.00
  52732                0.00    300.28     66.10      0.00
  52752                1.26    300.26     88.33      0.00
  52753                0.47    300.28     87.02      0.00
  52760                1.07    300.28     86.61      0.00
  52761                1.08    300.26     88.47      0.00
  52778                0.33    300.27     83.71      0.00
  52808                0.00    300.27     92.72      0.00
  52818                0.53    300.27     93.00      0.00
  52830                0.07    300.28     79.19      0.00
  52833                0.58    300.28     77.09      0.00
  52839                0.24    300.27     86.41      0.00
  52857                0.23    300.27     81.86      0.00
  52860                0.41    300.26     97.86      0.00
  52861                0.49    300.27     80.86      0.00
  52876                0.13    300.26     98.35      0.00
  52894                1.04    300.27     97.25      0.00
  52895                0.43    300.26     91.77      0.00
  52896                0.07    300.27     96.17      0.00
  52904                0.83    300.27     99.18      0.00
  52909                0.00    300.26    120.76      0.00
  52920                0.00    300.26    120.33      0.00
  52982                0.86    300.26     82.30      0.00
  52983                0.83    300.26     98.83      0.00
  52984                0.45    300.26     99.25      0.00
  53006                0.15    300.25     99.64      0.00
  53008                0.11    300.25     98.96      0.00
  53015                0.05    300.25     99.57      0.00
  53021                0.53    300.25     99.43      0.00
  53030                1.33    300.26     87.42      0.00
  53067                0.54    300.25    105.16      0.00
  53074                0.67    300.25     92.17      0.00
  53085                1.07    300.25    105.75      0.00
  53105                0.12    300.26     93.13      0.00
  53110                0.00    300.26     87.46      0.00
  53112                0.55    300.26     87.46      0.00
  53234                0.85    300.25     81.54      0.00
  53277                0.24    300.26     86.45      0.00
  53282                0.00    300.26     86.60      0.00
  53297                0.31    300.25    100.06      0.00
  53306                0.41    300.25     93.16      0.00
  53310                1.14    300.26     80.27      0.00
  53320                1.44    300.26     80.19      0.00
  53356                0.65    300.26     79.89      0.00
  53380                0.20    300.26     82.48      0.00
  53385                0.65    300.26     82.57      0.00
  53395                0.49    300.26     83.14      0.00
  53397                0.38    300.25     94.55      0.00
  53402                0.00    300.25     94.69      0.00
  53426                0.39    300.25     88.37      0.00
  53509                0.00    300.25     96.73      0.00
  53535                0.20    300.25    101.20      0.00
  53565                0.54    300.25    104.13      0.00
  53630                0.46    300.25     95.57      0.00
  53649                0.52    300.25     80.24      0.00
  53650                0.24    300.25     93.55      0.00
  53651                0.64    300.25     96.01      0.00
  53655                0.00    300.25     79.81      0.00
  53717                1.08    300.25     94.38      0.00
  53722                0.12    300.25     94.64      0.00
  111671               0.29    300.29     70.55      0.00
  111679               0.08    300.29     75.36      0.00
  111686               0.32    300.29     72.51      0.00
  111754               1.81    300.29     84.93      0.00
  111804               0.00    300.29     87.61      0.00
  111828               0.72    300.29     70.14      0.00
  111877               0.00    300.29     94.48      0.00
  111879               0.00    300.29     95.95      0.00
  111884               0.07    300.29     94.81      0.00
  111890               0.00    300.29     93.80      0.00
  111909               0.19    300.29     69.65      0.00
  111915               0.32    300.29     67.47      0.00
  111924               1.61    300.29     66.72      0.00
  111925               0.57    300.29     72.99      0.00
  111938               1.16    300.29     65.59      0.00
  111970               0.00    317.00     82.46      0.00
  111973               0.25    300.29     72.77      0.00
  111974               0.00    300.31     74.51      0.00
  111976               0.42    300.31     74.11      0.00
  111978               0.00    316.99     83.27      0.00
  111988               2.88    300.28     97.21      0.00
  111999               0.00    300.31     77.90      0.00
  112008               1.54    300.29     64.93      0.00
  112022               0.24    300.29     65.32      0.00
  112029               1.80    300.29     65.92      0.00
  112064               0.44    300.29     69.32      0.00
  112079               0.00    300.29     71.34      0.00
  112105               0.15    300.30     70.37      0.00
  112110               0.00    300.30     70.86      0.00
  112111               0.51    300.29     84.94      0.00
  112122               2.43    300.28     93.55      0.00
  112127               0.59    300.29     86.75      0.00
  112131               0.22    300.30     68.91      0.00
  112133               0.21    300.30     68.82      0.00
  112151               0.75    300.26     97.84      0.00
  112162               0.00    300.28     86.60      0.00
  112164               0.15    300.26     98.71      0.00
  112169               0.00    300.30     66.45      0.00
  112184               0.00    300.26     93.57      0.00
  112189               0.86    300.29     68.51      0.00
  112195               0.23    300.28     82.70      0.00
  112209               0.00    300.26     91.60      0.00
  112221               0.88    300.26    103.03      0.00
  112227               0.06    300.26    103.90      0.00
  112250               0.40    300.28     81.42      0.00
  112251               0.63    300.26     96.98      0.00
  112258               1.45    300.26     92.66      0.00
  112273               0.35    300.26    102.87      0.00
  112285               0.09    300.26     89.20      0.00
  112300               0.64    300.29     65.05      0.00
  112307               0.00    300.26    101.30      0.00
  112325               0.49    300.26    104.76      0.00
  112327               0.73    300.28     66.80      0.00
  112338               0.84    300.28     66.74      0.00
  112340               0.99    300.28     67.26      0.00
  112354               0.58    300.28     71.90      0.00
  112364               0.68    300.28     69.40      0.00
  112368               0.16    300.26     97.03      0.00
  112379               0.11    300.28     90.58      0.00
  112382               1.74    300.25     92.02      0.00
  112395               0.50    300.27     72.53      0.00
  112400               0.00    300.28     90.54      0.00
  112412               0.68    300.28     89.20      0.00
  112415               1.08    300.27     73.63      0.00
  112422               0.20    300.26     95.27      0.00
  112424               0.43    300.27     74.93      0.00
  112427               0.00    300.26     98.21      0.00
  112431               1.19    300.26     98.05      0.00
  112432               0.28    300.26    100.55      0.00
  112435               0.18    300.28     80.01      0.00
  112438               0.07    300.28     67.11      0.00
  112445               0.65    300.28     88.37      0.00
  112447               0.31    300.27     81.78      0.00
  112457               0.10    300.28     64.38      0.00
  112469               0.25    300.28     87.47      0.00
  112473               0.14    300.26     88.78      0.00
  112510               0.44    300.27     84.29      0.00
  112528               0.26    300.27     92.51      0.00
  112550               0.65    300.28     79.14      0.00
  112553               0.85    300.28     77.09      0.00
  112558               0.31    300.28     78.99      0.00
  112559               0.49    300.28     77.09      0.00
  112565               0.64    300.26     99.57      0.00
  112570               0.16    300.27     86.29      0.00
  112576               0.15    300.27     80.88      0.00
  112588               0.82    300.26     97.37      0.00
  112613               0.68    300.26    103.41      0.00
  112615               0.69    300.26     91.25      0.00
  112617               0.23    300.27     97.28      0.00
  112637               0.00    300.26    120.33      0.00
  112641               0.00    300.26    120.33      0.00
  112642               0.00    300.26    120.33      0.00
  112661               1.01    300.26     94.18      0.00
  112665               1.44    300.25     75.75      0.00
  112680               0.51    300.25     97.84      0.00
  112695               0.53    300.25    102.42      0.00
  112697               0.52    300.26     82.72      0.00
  112703               0.82    300.26     99.14      0.00
  112724               0.21    300.25     99.57      0.00
  112725               0.55    300.25     99.57      0.00
  112732               0.35    300.25     99.65      0.00
  112736               0.36    300.26     87.77      0.00
  112747               1.12    300.26     96.51      0.00
  112779               0.57    300.25    109.77      0.00
  112783               0.06    300.25     92.06      0.00
  112796               0.58    300.25    105.38      0.00
  112814               0.52    300.26     93.30      0.00
  112817               0.34    300.26     87.46      0.00
  112830               0.82    300.26     91.27      0.00
  112852               1.05    300.26     90.92      0.00
  112925               0.72    300.25     81.79      0.00
  112963               0.82    300.26     83.60      0.00
  112980               0.58    300.26     86.56      0.00
  112983               0.93    300.25    100.08      0.00
  112988               0.50    300.25     93.39      0.00
  113014               0.12    300.26     79.94      0.00
  113031               0.52    300.25     98.70      0.00
  113062               0.36    300.26     79.65      0.00
  113085               0.00    300.26     82.62      0.00
  113102               0.32    300.25     94.79      0.00
  113115               0.83    300.25     88.29      0.00
  113141               0.58    300.25     87.62      0.00
  113205               0.63    300.25     96.49      0.00
  113213               0.09    300.25     96.51      0.00
  113235               1.01    300.25    101.00      0.00
  113256               0.97    300.25     90.19      0.00
  113276               0.79    300.25    116.83      0.00
  113349               0.00    300.25     95.98      0.00
  113361               0.44    300.25     80.59      0.00
  113363               0.22    300.25     75.11      0.00
  113433               0.03    300.25     94.66      0.00
  113454               0.63    300.25     92.54      0.00
  113487               0.47    300.25     93.98      0.00
  125982               0.00    317.00     84.48      0.00
  125988               0.21    300.26     97.84      0.00
  125990               1.60    300.26    103.98      0.00
  125992               0.84    300.28     69.42      0.00
  125994               0.56    300.26    104.38      0.00
  125998               0.17    300.26     98.79      0.00
  126011               0.46    300.25     98.35      0.00
  126016               1.72    300.25    111.87      0.00
  126024               0.35    300.25     92.40      0.00
  136023               0.00    300.29     92.79      0.00
  136028               0.59    300.29     68.52      0.00
  136051               0.14    300.29     72.65      0.00
  136079               0.29    300.26     96.98      0.00
  136083               0.31    300.26     89.27      0.00
  136090               0.29    300.26     99.36      0.00
  136101               1.86    300.28     86.69      0.00
  136103               0.58    300.26     99.99      0.00
  136121               0.87    300.27     88.23      0.00
  136122               0.71    300.28     70.55      0.00
  136124               0.38    300.27     97.98      0.00
  136138               1.15    300.27     78.82      0.00
  136141               0.17    300.27     83.05      0.00
  136178               0.89    300.25     95.99      0.00
  136188               0.35    300.26     87.46      0.00
  136196               1.66    300.26     77.15      0.00
  136233               0.67    300.26     82.57      0.00
  136254               0.00    300.25    104.55      0.00
  297542               0.00    317.00     82.09      0.00
  297543               0.00    300.31     74.58      0.00
  297549               0.00    316.95     82.40      0.00
  297550               0.00    300.36     74.75      0.00
  299166               0.00    300.31     74.68      0.00
  299481               0.00    316.99     82.50      0.00
  303220               0.00    316.63     82.10      0.00
  303421               0.00    300.31     74.94      0.00
  303665               0.00    316.99     82.36      0.00
  304413               0.00    300.69     74.99      0.00
  140785-A             0.00    316.99     84.94      0.00
  140785-B             0.00    300.31     77.73      0.00
  294718-A             0.00    316.33     84.65      0.00
  294718-B             0.00    300.86     77.96 230000.00
  329219            -141.15    317.00      0.00      0.00  Reservoir
   
   
  Link Results at 1:00:00 hrs:
  ----------------------------------------------
                       Flow  Velocity  Headloss
  Link                  gpm       fps   /1000ft
  ----------------------------------------------
  143444              -0.00      0.00      0.00
  143912             141.15      0.58      0.17
  144721             141.15      0.58      0.18
  145008               0.00      0.00      0.00
  145028               1.57      0.07      0.04
  145354               0.00      0.00      0.00
  147226            -140.52      0.22      0.02
  148233               1.05      0.05      0.01
  149291               0.32      0.01      0.00
  150009              -1.19      0.01      0.00
  150219              -0.18      0.00      0.00
  150964              -0.00      0.00      0.00
  152494             141.15      0.58      0.18
  152943              13.56      0.02      0.00
  153988               0.00      0.00      0.00
  157992               0.32      0.01      0.00
  158333              -0.00      0.00      0.00
  159184             140.73      0.29      0.03
  159877               0.00      0.00      0.00
  160015               0.10      0.00      0.00
  161931               0.09      0.00      0.00
  162016               0.00      0.00      0.00
  162162              21.82      0.14      0.02
  162650              -0.00      0.00      0.00
  164474               0.00      0.00      0.00
  166868              16.59      0.11      0.01
  167181               3.36      0.02      0.00
  168053              -3.04      0.03      0.00
  169296              10.72      0.07      0.01
  170161               0.76      0.02      0.00
  171658              -1.84      0.08      0.05
  172188               0.94      0.04      0.01
  172659              41.27      0.07      0.00
  173485              -1.85      0.01      0.00
  173495              43.54      0.12      0.01
  173901              -1.23      0.01      0.00
  174109               0.00      0.00      0.00
  174294               1.02      0.01      0.00
  174340               0.04      0.00      0.00
  174548               0.09      0.00      0.00
  174604              -1.71      0.02      0.00
  174676               0.27      0.00      0.00
  174829               0.23      0.00      0.00
  175202               0.00      0.00      0.00
  175473               0.45      0.01      0.00
  176128               0.97      0.04      0.01
  177197               1.06      0.05      0.01
  177579              30.58      0.05      0.00
  177679               0.69      0.03      0.00
  178318              -3.75      0.02      0.00
  178673               0.00      0.00      0.00
  178851               0.00      0.00      0.00
  179839               4.00      0.05      0.01
  180099               1.06      0.05      0.01
  181243               2.46      0.02      0.00
  182760              10.62      0.07      0.01
  183161               0.00      0.00      0.00
  183593              -1.63      0.00      0.00
  183889               9.85      0.06      0.01
  184240               0.31      0.01      0.00
  184513               3.49      0.04      0.00
  184533              -2.55      0.03      0.00
  185922               8.23      0.05      0.00
  186466              -5.82      0.07      0.01
  186932               8.06      0.05      0.00
  187099               5.21      0.03      0.01
  187760               6.49      0.04      0.00
  187798               4.95      0.06      0.01
  187831               0.39      0.02      0.00
  188736               3.44      0.02      0.00
  188759               2.11      0.01      0.00
  189108               5.17      0.06      0.01
  189509               7.42      0.05      0.00
  189798             -11.46      0.07      0.01
  190055               1.65      0.02      0.00
  190065               0.49      0.02      0.00
  190082               2.08      0.09      0.03
  190103              -2.97      0.02      0.00
  190148               0.87      0.04      0.01
  190359               0.83      0.04      0.01
  190375            -141.15      0.23      0.02
  191104              11.53      0.03      0.00
  191141              -0.22      0.00      0.00
  191349              -1.95      0.02      0.00
  191926              -0.59      0.00      0.00
  191973               0.47      0.00      0.00
  192337              12.57      0.08      0.01
  193948              -1.71      0.01      0.00
  194063               1.05      0.05      0.01
  194408             -11.14      0.07      0.01
  194598              -2.30      0.10      0.04
  195346              -4.38      0.05      0.00
  195626               3.76      0.02      0.00
  195662              -2.32      0.03      0.00
  196093               0.68      0.03      0.00
  196299               1.11      0.05      0.01
  196979               1.86      0.01      0.00
  197217               3.74      0.04      0.00
  197420               1.94      0.02      0.00
  197433             -11.46      0.07      0.01
  197530               1.07      0.05      0.01
  197756              -0.70      0.01      0.00
  197924              -3.24      0.04      0.00
  198273               6.82      0.04      0.00
  198617            -115.76      0.18      0.01
  198716               0.96      0.01      0.00
  198980              -8.09      0.05      0.00
  199197               3.35      0.02      0.00
  199425              22.24      0.06      0.00
  199623               1.91      0.02      0.00
  200989               0.10      0.00      0.00
  201266               1.46      0.02      0.00
  202587              41.10      0.07      0.00
  202720              13.56      0.09      0.01
  202812               0.35      0.00      0.00
  202906               2.04      0.02      0.00
  203220               2.72      0.03      0.00
  203413              -0.99      0.01      0.00
  204299               1.08      0.01      0.00
  204411               5.08      0.03      0.00
  204605               0.61      0.03      0.00
  205327               1.84      0.02      0.00
  206577               5.12      0.03      0.00
  207223              -4.06      0.05      0.00
  208053               0.82      0.01      0.00
  208177               3.00      0.03      0.00
  208867              44.11      0.07      0.00
  208926               0.96      0.01      0.00
  209334               2.36      0.02      0.00
  209600               0.00      0.00      0.00
  209681              -0.11      0.00      0.00
  209689               4.43      0.05      0.00
  210414               0.84      0.04      0.01
  210814               8.06      0.05      0.00
  210903               0.00      0.00      0.00
  211982               1.20      0.05      0.01
  212040               5.55      0.06      0.01
  212307               1.47      0.02      0.00
  212462               4.72      0.03      0.00
  213198               0.12      0.00      0.00
  213244              41.00      0.07      0.00
  213894               1.54      0.04      0.00
  214258              -1.86      0.01      0.00
  214343               2.54      0.03      0.00
  214803             -28.09      0.04      0.00
  215748              28.32      0.05      0.00
  215782               0.55      0.03      0.00
  216399              -0.00      0.00      0.00
  216800               0.29      0.00      0.00
  218565               3.00      0.03      0.00
  219177              10.72      0.07      0.00
  222581               0.28      0.01      0.00
  222897               3.79      0.04      0.00
  223500               0.07      0.00      0.00
  223515               5.06      0.06      0.01
  223565              21.66      0.14      0.02
  223595               5.17      0.03      0.00
  224325               0.98      0.01      0.00
  224457              11.45      0.03      0.00
  224694              16.59      0.11      0.01
  226076              -0.62      0.01      0.00
  226948               2.47      0.03      0.00
  227122               0.08      0.00      0.00
  227292             -56.79      0.09      0.00
  227701               0.00      0.00      0.00
  228252              21.82      0.14      0.02
  228285               1.64      0.02      0.00
  228701              13.37      0.04      0.00
  229363               4.28      0.03      0.00
  229621               0.52      0.02      0.00
  230652               0.64      0.03      0.00
  230726               0.50      0.02      0.00
  231290             -11.14      0.03      0.00
  231666               4.33      0.05      0.00
  231795               0.82      0.04      0.01
  231836               0.58      0.03      0.00
  231862              -0.22      0.00      0.00
  232630               2.65      0.03      0.00
  233234               0.49      0.02      0.00
  234415               1.73      0.01      0.00
  234455               4.96      0.03      0.00
  234688              -1.35      0.01      0.00
  236434             141.15      0.23      0.02
  236811               8.83      0.06      0.00
  237041              -3.14      0.02      0.00
  237064              -1.08      0.01      0.00
  237168               0.57      0.03      0.00
  237177               0.75      0.02      0.00
  239445              -1.86      0.01      0.00
  240228               0.70      0.03      0.00
  240391               1.05      0.01      0.00
  240897               0.82      0.04      0.01
  241237             -27.92      0.08      0.00
  241472               0.68      0.03      0.00
  242304              -6.36      0.07      0.01
  242787              -5.46      0.03      0.00
  243710               0.55      0.01      0.00
  244154               5.40      0.03      0.00
  244199              87.37      0.14      0.01
  244291              -1.35      0.01      0.00
  244762               1.13      0.05      0.01
  245259               1.74      0.08      0.02
  245846               0.53      0.02      0.00
  246401               4.74      0.05      0.01
  246465               0.51      0.02      0.00
  248481               0.68      0.00      0.00
  250349              -7.89      0.05      0.00
  250496               2.20      0.01      0.00
  250804              10.13      0.06      0.00
  251045              -0.47      0.00      0.00
  251284               0.00      0.00      0.00
  251733              -8.66      0.06      0.00
  252796               5.36      0.03      0.00
  253204               5.97      0.04      0.00
  254126               1.58      0.02      0.00
  254662               3.50      0.04      0.00
  255356               2.67      0.02      0.00
  255518              40.29      0.06      0.00
  255539              32.87      0.09      0.01
  255739              10.23      0.07      0.00
  256669              31.00      0.05      0.00
  256794             -56.79      0.09      0.00
  256953               0.73      0.03      0.00
  257019            -116.32      0.19      0.01
  257297               1.05      0.01      0.00
  257785             -65.54      0.10      0.00
  258261             -28.56      0.08      0.00
  258447               4.32      0.03      0.00
  260582              24.56      0.07      0.00
  261100               0.88      0.02      0.00
  261233              11.82      0.08      0.01
  261270             -63.48      0.10      0.00
  261655              -0.04      0.00      0.00
  263969               2.39      0.03      0.00
  264001               7.95      0.05      0.00
  264770               3.27      0.04      0.00
  265551             -58.65      0.09      0.00
  265560               5.98      0.04      0.00
  265616               1.45      0.07      0.02
  265691               1.50      0.02      0.00
  265706              14.04      0.04      0.00
  265808              -2.33      0.01      0.00
  266194              16.45      0.10      0.01
  266841              -0.81      0.00      0.00
  266842              -0.81      0.00      0.00
  267929              72.01      0.11      0.01
  268077              -2.59      0.03      0.00
  269429               1.48      0.02      0.00
  269835              40.23      0.11      0.01
  270144              12.69      0.08      0.01
  270838               1.01      0.05      0.01
  272117            -113.71      0.18      0.01
  273407               8.52      0.05      0.00
  273419               7.53      0.05      0.00
  274062               1.12      0.05      0.01
  274243              -0.53      0.01      0.00
  275061               0.44      0.00      0.00
  275324               2.59      0.02      0.00
  275693               1.14      0.01      0.00
  275721               3.03      0.03      0.00
  276538             -30.02      0.09      0.00
  276808               0.86      0.01      0.00
  276846               4.63      0.03      0.00
  277145              -1.48      0.02      0.00
  277754              41.49      0.07      0.00
  278116               1.44      0.07      0.02
  278604               0.92      0.01      0.00
  279316              73.16      0.12      0.01
  279674               5.06      0.06      0.01
  279828               2.29      0.01      0.00
  279853               4.29      0.03      0.00
  279866              -5.82      0.02      0.00
  279993              15.69      0.04      0.00
  280028               1.86      0.01      0.00
  280625              -4.23      0.05      0.00
  280641               0.44      0.01      0.00
  280654               1.81      0.01      0.00
  281851               0.71      0.01      0.00
  281980               2.68      0.02      0.00
  282316             141.15      0.10      0.00
  283626            -118.48      0.19      0.01
  283705               6.86      0.04      0.00
  284682              -0.63      0.00      0.00
  284874               8.52      0.05      0.00
  285060              36.63      0.06      0.00
  286293               1.91      0.01      0.00
  287815            -140.73      0.22      0.02
  288039               3.10      0.04      0.00
  289269              43.05      0.12      0.01
  289311               0.64      0.01      0.00
  289801              -0.79      0.01      0.00
  289907              43.54      0.07      0.00
  289918             -10.09      0.06      0.00
  290654               0.65      0.01      0.00
  291176              -2.23      0.03      0.00
  291951              -0.67      0.01      0.00
  292098               9.49      0.06      0.00
  292348               5.67      0.04      0.00
  292497              -3.24      0.04      0.00
  292567              -0.47      0.00      0.00
  292791              -0.00      0.00      0.00
  293204               0.90      0.01      0.00
  293382              24.18      0.07      0.00
  310606               0.00      0.00      0.00
  310991             141.15      3.60     15.30
  311108             141.15      6.41     62.13
  311112             141.15      3.60     15.30
  312120               0.00      0.00      0.00
  312936             141.15      6.41     62.13
  313119               0.00      0.00      0.00
  313285             141.15      6.41     62.13
  313352             141.15      6.41     62.13
  313450              -0.00      0.00      0.00
  313498              -0.00      0.00      0.00
  314563             141.15      0.58      0.18
  329220            -141.15      0.10      0.00
  140785               0.00      0.00      0.00  PRV
  294718             141.15      6.41     15.48  PRV
   
   
  Node Results at 2:00:00 hrs:
  --------------------------------------------------------
                     Demand      Head  Pressure  Chemical
  Node                  gpm        ft       psi      mg/L
  --------------------------------------------------------
  51956                0.12    300.60     72.09      0.00
  51961                0.17    300.60     72.91      0.00
  52038                0.95    300.60     76.37      0.00
  52080                1.01    300.60     87.22      0.00
  52086                0.30    300.60     87.03      0.00
  52087                0.00    300.60     88.70      0.00
  52108                0.75    300.60     70.50      0.00
  52157                0.00    300.60     94.76      0.00
  52160                0.00    300.60     95.31      0.00
  52166                0.10    300.60     93.77      0.00
  52174                0.76    300.60     93.69      0.00
  52179                0.00    300.60     69.52      0.00
  52188                0.28    300.60     69.45      0.00
  52189                0.00    317.00     92.39      0.00
  52197                0.25    300.60     66.99      0.00
  52198                0.33    300.60     67.35      0.00
  52222                0.20    300.60     65.95      0.00
  52254                0.00    300.61     75.06      0.00
  52258                0.00    317.00     82.56      0.00
  52261                0.00    300.61     74.64      0.00
  52262                0.00    300.61     74.28      0.00
  52264                0.00    300.61     74.39      0.00
  52307                0.07    300.60     65.70      0.00
  52344                0.14    300.60     69.45      0.00
  52350                0.40    300.60     69.45      0.00
  52359                0.08    300.60     71.35      0.00
  52360                0.00    300.60     71.70      0.00
  52392                0.00    300.60     70.58      0.00
  52407                0.52    300.60     85.02      0.00
  52413                0.36    300.60     86.65      0.00
  52417                0.00    300.60     69.19      0.00
  52418                0.00    300.60     69.10      0.00
  52423                0.85    300.60     86.75      0.00
  52438                1.20    300.60     86.75      0.00
  52439                1.06    300.59     98.81      0.00
  52451                0.04    300.59     98.65      0.00
  52460                0.37    300.60     86.30      0.00
  52472                0.77    300.60     82.76      0.00
  52484                0.00    300.59     92.50      0.00
  52501                0.69    300.59     92.05      0.00
  52509                0.49    300.58    104.04      0.00
  52512                0.05    300.58    104.04      0.00
  52528                0.86    300.59     81.55      0.00
  52534                0.14    300.59     97.17      0.00
  52560                0.05    300.59     89.34      0.00
  52575                0.74    300.59     88.78      0.00
  52578                0.00    300.59    102.05      0.00
  52581                1.26    300.59     89.34      0.00
  52589                0.00    300.59    100.91      0.00
  52603                0.05    300.59    100.99      0.00
  52605                0.28    300.59    102.05      0.00
  52622                0.14    300.60     67.38      0.00
  52628                1.03    300.59     87.35      0.00
  52642                0.28    300.59     72.04      0.00
  52655                0.23    300.58     97.07      0.00
  52660                0.37    300.59     91.28      0.00
  52685                0.27    300.59     90.47      0.00
  52702                0.13    300.59     89.34      0.00
  52704                0.24    300.59     74.71      0.00
  52709                0.17    300.59     95.83      0.00
  52712                0.14    300.59     79.87      0.00
  52718                0.46    300.59     81.82      0.00
  52721                0.06    300.59     68.51      0.00
  52723                0.14    300.59     66.57      0.00
  52727                0.00    300.59     88.52      0.00
  52728                0.07    300.59     82.42      0.00
  52732                0.00    300.59     66.24      0.00
  52752                0.82    300.59     88.47      0.00
  52753                0.31    300.59     87.16      0.00
  52760                0.70    300.59     86.74      0.00
  52761                0.70    300.59     88.62      0.00
  52778                0.22    300.59     83.85      0.00
  52808                0.00    300.59     92.86      0.00
  52818                0.34    300.59     93.14      0.00
  52830                0.05    300.59     79.32      0.00
  52833                0.38    300.59     77.23      0.00
  52839                0.16    300.59     86.55      0.00
  52857                0.15    300.59     82.00      0.00
  52860                0.27    300.59     98.00      0.00
  52861                0.32    300.59     80.99      0.00
  52876                0.09    300.59     98.50      0.00
  52894                0.68    300.59     97.39      0.00
  52895                0.28    300.59     91.91      0.00
  52896                0.05    300.59     96.31      0.00
  52904                0.54    300.59     99.32      0.00
  52909                0.00    300.59    120.90      0.00
  52920                0.00    300.59    120.47      0.00
  52982                0.56    300.59     82.44      0.00
  52983                0.54    300.59     98.97      0.00
  52984                0.29    300.59     99.39      0.00
  53006                0.10    300.58     99.79      0.00
  53008                0.07    300.58     99.11      0.00
  53015                0.04    300.58     99.71      0.00
  53021                0.35    300.58     99.57      0.00
  53030                0.87    300.59     87.56      0.00
  53067                0.35    300.58    105.30      0.00
  53074                0.44    300.58     92.32      0.00
  53085                0.70    300.58    105.89      0.00
  53105                0.08    300.59     93.27      0.00
  53110                0.00    300.58     87.60      0.00
  53112                0.36    300.58     87.60      0.00
  53234                0.56    300.58     81.68      0.00
  53277                0.16    300.58     86.59      0.00
  53282                0.00    300.58     86.74      0.00
  53297                0.20    300.58    100.20      0.00
  53306                0.27    300.58     93.31      0.00
  53310                0.74    300.58     80.42      0.00
  53320                0.94    300.58     80.33      0.00
  53356                0.42    300.58     80.04      0.00
  53380                0.13    300.58     82.62      0.00
  53385                0.43    300.58     82.71      0.00
  53395                0.32    300.58     83.28      0.00
  53397                0.25    300.58     94.70      0.00
  53402                0.00    300.58     94.83      0.00
  53426                0.25    300.58     88.51      0.00
  53509                0.00    300.58     96.88      0.00
  53535                0.13    300.58    101.34      0.00
  53565                0.35    300.58    104.27      0.00
  53630                0.30    300.58     95.72      0.00
  53649                0.34    300.58     80.38      0.00
  53650                0.16    300.58     93.69      0.00
  53651                0.41    300.58     96.15      0.00
  53655                0.00    300.58     79.96      0.00
  53717                0.70    300.58     94.52      0.00
  53722                0.08    300.58     94.78      0.00
  111671               0.19    300.60     70.68      0.00
  111679               0.06    300.60     75.50      0.00
  111686               0.21    300.60     72.64      0.00
  111754               1.18    300.60     85.07      0.00
  111804               0.00    300.60     87.74      0.00
  111828               0.47    300.60     70.27      0.00
  111877               0.00    300.60     94.61      0.00
  111879               0.00    300.60     96.08      0.00
  111884               0.05    300.60     94.95      0.00
  111890               0.00    300.60     93.93      0.00
  111909               0.13    300.60     69.78      0.00
  111915               0.21    300.60     67.60      0.00
  111924               1.05    300.60     66.85      0.00
  111925               0.37    300.60     73.13      0.00
  111938               0.76    300.60     65.72      0.00
  111970               0.00    317.00     82.46      0.00
  111973               0.16    300.60     72.91      0.00
  111974               0.00    300.61     74.64      0.00
  111976               0.27    300.61     74.24      0.00
  111978               0.00    317.00     83.27      0.00
  111988               1.88    300.60     97.35      0.00
  111999               0.00    300.61     78.03      0.00
  112008               1.00    300.60     65.06      0.00
  112022               0.16    300.60     65.45      0.00
  112029               1.17    300.60     66.05      0.00
  112064               0.29    300.60     69.45      0.00
  112079               0.00    300.60     71.47      0.00
  112105               0.10    300.60     70.50      0.00
  112110               0.00    300.60     70.99      0.00
  112111               0.33    300.60     85.07      0.00
  112122               1.59    300.59     93.68      0.00
  112127               0.38    300.60     86.88      0.00
  112131               0.15    300.60     69.04      0.00
  112133               0.14    300.60     68.96      0.00
  112151               0.49    300.58     97.98      0.00
  112162               0.00    300.60     86.73      0.00
  112164               0.10    300.59     98.85      0.00
  112169               0.00    300.60     66.59      0.00
  112184               0.00    300.59     93.71      0.00
  112189               0.56    300.60     68.64      0.00
  112195               0.15    300.60     82.83      0.00
  112209               0.00    300.59     91.74      0.00
  112221               0.57    300.58    103.17      0.00
  112227               0.04    300.58    104.04      0.00
  112250               0.26    300.59     81.55      0.00
  112251               0.41    300.59     97.12      0.00
  112258               0.95    300.59     92.80      0.00
  112273               0.23    300.59    103.01      0.00
  112285               0.06    300.59     89.34      0.00
  112300               0.41    300.60     65.18      0.00
  112307               0.00    300.59    101.44      0.00
  112325               0.32    300.59    104.90      0.00
  112327               0.48    300.59     66.94      0.00
  112338               0.55    300.59     66.88      0.00
  112340               0.65    300.60     67.39      0.00
[...]
  112724               0.21    300.28     99.58      0.00
  112725               0.54    300.28     99.58      0.00
  112732               0.35    300.28     99.66      0.00
  112736               0.35    300.28     87.78      0.00
  112747               1.10    300.28     96.52      0.00
  112779               0.56    300.28    109.78      0.00
  112783               0.06    300.28     92.07      0.00
  112796               0.57    300.28    105.39      0.00
  112814               0.51    300.28     93.31      0.00
  112817               0.33    300.28     87.47      0.00
  112830               0.80    300.28     91.28      0.00
  112852               1.03    300.28     90.93      0.00
  112925               0.70    300.28     81.80      0.00
  112963               0.80    300.28     83.61      0.00
  112980               0.57    300.28     86.57      0.00
  112983               0.91    300.28    100.09      0.00
  112988               0.49    300.28     93.40      0.00
  113014               0.11    300.28     79.95      0.00
  113031               0.51    300.28     98.72      0.00
  113062               0.35    300.28     79.66      0.00
  113085               0.00    300.28     82.63      0.00
  113102               0.32    300.28     94.80      0.00
  113115               0.81    300.28     88.30      0.00
  113141               0.57    300.28     87.63      0.00
  113205               0.62    300.28     96.50      0.00
  113213               0.09    300.28     96.52      0.00
  113235               0.99    300.28    101.01      0.00
  113256               0.95    300.28     90.20      0.00
  113276               0.77    300.28    116.84      0.00
  113349               0.00    300.28     95.99      0.00
  113361               0.43    300.28     80.60      0.00
  113363               0.21    300.28     75.12      0.00
  113433               0.03    300.28     94.67      0.00
  113454               0.62    300.28     92.55      0.00
  113487               0.46    300.28     93.99      0.00
  125982               0.00    317.00     84.48      0.00
  125988               0.20    300.28     97.85      0.00
  125990               1.56    300.28    104.00      0.00
  125992               0.82    300.30     69.43      0.00
  125994               0.54    300.28    104.39      0.00
  125998               0.17    300.28     98.81      0.00
  126011               0.45    300.28     98.36      0.00
  126016               1.68    300.28    111.88      0.00
  126024               0.34    300.28     92.41      0.00
  136023               0.00    300.31     92.80      0.00
  136028               0.58    300.31     68.53 229999.47
  136051               0.13    300.32     72.66 229999.64
  136079               0.29    300.28     96.99      0.00
  136083               0.30    300.29     89.28      0.00
  136090               0.28    300.28     99.37      0.00
  136101               1.82    300.30     86.70 229070.41
  136103               0.57    300.28    100.00      0.00
  136121               0.85    300.30     88.24 148603.56
  136122               0.69    300.30     70.56 229070.00
  136124               0.38    300.29     97.99      0.00
  136138               1.12    300.30     78.83 148603.70
  136141               0.17    300.29     83.06  34470.48
  136178               0.87    300.28     96.00      0.00
  136188               0.35    300.28     87.47      0.00
  136196               1.63    300.28     77.16      0.00
  136233               0.66    300.28     82.58      0.00
  136254               0.00    300.28    104.56      0.00
  297542               0.00    317.00     82.09      0.00
  297543               0.00    300.33     74.59      0.00
  297549               0.00    316.96     82.40      0.00
  297550               0.00    300.38     74.76 230000.00
  299166               0.00    300.34     74.68 229999.36
  299481               0.00    316.99     82.50      0.00
  303220               0.00    316.64     82.11      0.00
  303421               0.00    300.34     74.94      0.00
  303665               0.00    316.99     82.36      0.00
  304413               0.00    300.69     74.99 230000.00
  140785-A             0.00    316.99     84.94      0.00
  140785-B             0.00    300.34     77.74      0.00
  294718-A             0.00    316.36     84.67      0.00
  294718-B             0.00    300.86     77.96 230000.00
  329219            -137.99    317.00      0.00      0.00  Reservoir
   
   
  Link Results at 24:00:00 hrs:
  ----------------------------------------------
                       Flow  Velocity  Headloss
  Link                  gpm       fps   /1000ft
  ----------------------------------------------
  143444              -0.00      0.00      0.00
  143912             137.99      0.56      0.16
  144721             137.99      0.56      0.17
  145008               0.00      0.00      0.00
  145028               1.54      0.07      0.04
  145354               0.00      0.00      0.00
  147226            -137.37      0.22      0.02
  148233               1.03      0.05      0.01
  149291               0.32      0.01      0.00
  150009              -1.17      0.01      0.00
  150219              -0.18      0.00      0.00
  150964              -0.00      0.00      0.00
  152494             137.99      0.56      0.17
  152943              13.25      0.02      0.00
  153988               0.00      0.00      0.00
  157992               0.32      0.01      0.00
  158333              -0.00      0.00      0.00
  159184             137.58      0.29      0.03
  159877              -0.00      0.00      0.00
  160015               0.10      0.00      0.00
  161931               0.09      0.00      0.00
  162016               0.00      0.00      0.00
  162162              21.33      0.14      0.02
  162650              -0.00      0.00      0.00
  164474               0.00      0.00      0.00
  166868              16.21      0.10      0.01
  167181               3.28      0.02      0.00
  168053              -2.97      0.03      0.00
  169296              10.48      0.07      0.01
  170161               0.75      0.02      0.00
  171658              -1.80      0.08      0.05
  172188               0.92      0.04      0.01
  172659              40.35      0.06      0.00
  173485              -1.81      0.01      0.00
  173495              42.56      0.12      0.01
  173901              -1.20      0.01      0.00
  174109               0.00      0.00      0.00
  174294               1.00      0.01      0.00
  174340               0.04      0.00      0.00
  174548               0.09      0.00      0.00
  174604              -1.67      0.02      0.00
  174676               0.26      0.00      0.00
  174829               0.23      0.00      0.00
  175202               0.00      0.00      0.00
  175473               0.44      0.00      0.00
  176128               0.95      0.04      0.01
  177197               1.04      0.05      0.01
  177579              29.90      0.05      0.00
  177679               0.68      0.03      0.00
  178318              -3.67      0.02      0.00
  178673               0.00      0.00      0.00
  178851               0.00      0.00      0.00
  179839               3.91      0.04      0.01
  180099               1.04      0.05      0.01
  181243               2.41      0.02      0.00
  182760              10.38      0.07      0.01
  183161               0.00      0.00      0.00
  183593              -1.59      0.00      0.00
  183889               9.63      0.06      0.01
  184240               0.31      0.01      0.00
  184513               3.41      0.04      0.00
  184533              -2.49      0.03      0.00
  185922               8.04      0.05      0.00
  186466              -5.69      0.06      0.01
  186932               7.88      0.05      0.00
  187099               5.09      0.03      0.00
  187760               6.34      0.04      0.00
  187798               4.84      0.05      0.01
  187831               0.38      0.02      0.00
  188736               3.36      0.02      0.00
  188759               2.06      0.01      0.00
  189108               5.06      0.06      0.01
  189509               7.25      0.05      0.00
  189798             -11.21      0.07      0.01
  190055               1.61      0.02      0.00
  190065               0.48      0.02      0.00
  190082               2.04      0.09      0.03
  190103              -2.90      0.02      0.00
  190148               0.85      0.04      0.01
  190359               0.82      0.04      0.01
  190375            -137.99      0.22      0.02
  191104              11.27      0.03      0.00
  191141              -0.21      0.00      0.00
  191349              -1.91      0.02      0.00
  191926              -0.57      0.00      0.00
  191973               0.46      0.00      0.00
  192337              12.29      0.08      0.01
  193948              -1.68      0.01      0.00
  194063               1.03      0.05      0.01
  194408             -10.89      0.07      0.01
  194598              -2.25      0.10      0.04
  195346              -4.28      0.05      0.00
  195626               3.68      0.02      0.00
  195662              -2.27      0.03      0.00
  196093               0.66      0.03      0.00
  196299               1.09      0.05      0.01
  196979               1.82      0.01      0.00
  197217               3.66      0.04      0.00
  197420               1.89      0.02      0.00
  197433             -11.21      0.07      0.01
  197530               1.05      0.05      0.01
  197756              -0.68      0.01      0.00
  197924              -3.17      0.04      0.00
  198273               6.67      0.04      0.00
  198617            -113.17      0.18      0.01
  198716               0.94      0.01      0.00
  198980              -7.90      0.05      0.00
  199197               3.27      0.02      0.00
  199425              21.74      0.06      0.00
  199623               1.87      0.02      0.00
  200989               0.10      0.00      0.00
  201266               1.43      0.02      0.00
  202587              40.18      0.06      0.00
  202720              13.25      0.08      0.01
  202812               0.34      0.00      0.00
  202906               2.00      0.02      0.00
  203220               2.66      0.03      0.00
  203413              -0.97      0.01      0.00
  204299               1.06      0.01      0.00
  204411               4.97      0.03      0.00
  204605               0.59      0.03      0.00
  205327               1.80      0.02      0.00
  206577               5.00      0.03      0.00
  207223              -3.97      0.05      0.00
  208053               0.80      0.01      0.00
  208177               2.93      0.03      0.00
  208867              43.12      0.07      0.00
  208926               0.94      0.01      0.00
  209334               2.31      0.01      0.00
  209600               0.00      0.00      0.00
  209681              -0.11      0.00      0.00
  209689               4.33      0.05      0.00
  210414               0.82      0.04      0.01
  210814               7.88      0.05      0.01
  210903               0.00      0.00      0.00
  211982               1.17      0.05      0.01
  212040               5.43      0.06      0.01
  212307               1.44      0.02      0.00
  212462               4.61      0.03      0.00
  213198               0.12      0.00      0.00
  213244              40.08      0.06      0.00
  213894               1.50      0.04      0.00
  214258              -1.82      0.01      0.00
  214343               2.49      0.03      0.00
  214803             -27.46      0.04      0.00
  215748              27.69      0.04      0.00
  215782               0.54      0.02      0.00
  216399              -0.00      0.00      0.00
  216800               0.28      0.00      0.00
  218565               2.93      0.03      0.00
  219177              10.48      0.07      0.00
  222581               0.27      0.01      0.00
  222897               3.70      0.04      0.00
  223500               0.07      0.00      0.00
  223515               4.95      0.06      0.01
  223565              21.18      0.14      0.02
  223595               5.06      0.03      0.00
  224325               0.95      0.01      0.00
  224457              11.19      0.03      0.00
  224694              16.21      0.10      0.01
  226076              -0.61      0.01      0.00
  226948               2.42      0.03      0.00
  227122               0.08      0.00      0.00
  227292             -55.52      0.09      0.00
  227701              -0.00      0.00      0.00
  228252              21.33      0.14      0.02
  228285               1.61      0.02      0.00
  228701              13.07      0.04      0.00
  229363               4.19      0.03      0.00
  229621               0.51      0.02      0.00
  230652               0.62      0.03      0.00
  230726               0.49      0.02      0.00
  231290             -10.89      0.03      0.00
  231666               4.24      0.05      0.00
  231795               0.80      0.04      0.01
  231836               0.57      0.03      0.00
  231862              -0.21      0.00      0.00
  232630               2.59      0.03      0.00
  233234               0.48      0.02      0.00
  234415               1.69      0.01      0.00
  234455               4.84      0.03      0.00
  234688              -1.32      0.01      0.00
  236434             137.99      0.22      0.02
  236811               8.64      0.06      0.00
  237041              -3.07      0.02      0.00
  237064              -1.06      0.01      0.00
  237168               0.56      0.03      0.00
  237177               0.73      0.02      0.00
  239445              -1.82      0.01      0.00
  240228               0.68      0.03      0.00
  240391               1.02      0.01      0.00
  240897               0.80      0.04      0.01
  241237             -27.29      0.08      0.00
  241472               0.67      0.03      0.00
  242304              -6.22      0.07      0.01
  242787              -5.34      0.03      0.00
  243710               0.53      0.01      0.00
  244154               5.28      0.03      0.00
  244199              85.42      0.14      0.01
  244291              -1.32      0.01      0.00
  244762               1.10      0.05      0.01
  245259               1.70      0.08      0.02
  245846               0.52      0.02      0.00
  246401               4.64      0.05      0.00
  246465               0.50      0.02      0.00
  248481               0.67      0.00      0.00
  250349              -7.71      0.05      0.00
  250496               2.15      0.01      0.00
  250804               9.90      0.06      0.00
  251045              -0.46      0.00      0.00
  251284               0.00      0.00      0.00
  251733              -8.47      0.05      0.00
  252796               5.24      0.03      0.00
  253204               5.83      0.04      0.00
  254126               1.54      0.02      0.00
  254662               3.42      0.04      0.00
  255356               2.61      0.02      0.00
  255518              39.39      0.06      0.00
  255539              32.14      0.09      0.00
  255739              10.00      0.06      0.00
  256669              30.30      0.05      0.00
  256794             -55.52      0.09      0.00
  256953               0.72      0.03      0.00
  257019            -113.72      0.18      0.01
  257297               1.03      0.01      0.00
  257785             -64.08      0.10      0.00
  258261             -27.92      0.08      0.00
  258447               4.22      0.03      0.00
  260582              24.01      0.07      0.00
  261100               0.86      0.02      0.00
  261233              11.55      0.07      0.01
  261270             -62.06      0.10      0.00
  261655              -0.04      0.00      0.00
  263969               2.33      0.03      0.00
  264001               7.77      0.05      0.00
  264770               3.20      0.04      0.00
  265551             -57.34      0.09      0.00
  265560               5.85      0.04      0.00
  265616               1.42      0.06      0.02
  265691               1.47      0.02      0.00
  265706              13.73      0.04      0.00
  265808              -2.28      0.01      0.00
  266194              16.08      0.10      0.01
  266841              -0.79      0.00      0.00
  266842              -0.79      0.00      0.00
  267929              70.40      0.11      0.01
  268077              -2.54      0.03      0.00
  269429               1.44      0.02      0.00
  269835              39.33      0.11      0.01
  270144              12.40      0.08      0.01
  270838               0.99      0.05      0.01
  272117            -111.16      0.18      0.01
  273407               8.33      0.05      0.00
  273419               7.36      0.05      0.00
  274062               1.10      0.05      0.01
  274243              -0.52      0.01      0.00
  275061               0.43      0.00      0.00
  275324               2.53      0.02      0.00
  275693               1.11      0.01      0.00
  275721               2.97      0.03      0.00
  276538             -29.35      0.08      0.00
  276808               0.84      0.01      0.00
  276846               4.53      0.03      0.00
  277145              -1.45      0.02      0.00
  277754              40.57      0.06      0.00
  278116               1.41      0.06      0.02
  278604               0.90      0.01      0.00
  279316              71.53      0.11      0.01
  279674               4.94      0.06      0.01
  279828               2.24      0.01      0.00
  279853               4.20      0.03      0.00
  279866              -5.69      0.02      0.00
  279993              15.34      0.04      0.00
  280028               1.82      0.01      0.00
  280625              -4.14      0.05      0.00
  280641               0.43      0.00      0.00
  280654               1.77      0.01      0.00
  281851               0.69      0.01      0.00
  281980               2.62      0.02      0.00
  282316             137.99      0.10      0.00
  283626            -115.83      0.18      0.01
  283705               6.70      0.04      0.00
  284682              -0.62      0.00      0.00
  284874               8.33      0.05      0.00
  285060              35.81      0.06      0.00
  286293               1.87      0.01      0.00
  287815            -137.58      0.22      0.02
  288039               3.03      0.03      0.00
  289269              42.09      0.12      0.01
  289311               0.62      0.01      0.00
  289801              -0.77      0.01      0.00
  289907              42.56      0.07      0.00
  289918              -9.86      0.06      0.00
  290654               0.64      0.01      0.00
  291176              -2.18      0.02      0.00
  291951              -0.65      0.01      0.00
  292098               9.27      0.06      0.00
  292348               5.55      0.04      0.00
  292497              -3.17      0.04      0.00
  292567              -0.46      0.00      0.00
  292791              -0.00      0.00      0.00
  293204               0.88      0.01      0.00
  293382              23.63      0.07      0.00
  310606               0.00      0.00      0.00
  310991             137.99      3.52     14.68
  311108             137.99      6.26     59.58
  311112             137.99      3.52     14.68
  312120               0.00      0.00      0.00
  312936             137.99      6.26     59.58
  313119               0.00      0.00      0.00
  313285             137.99      6.26     59.58
  313352             137.99      6.26     59.58
  313450               0.00      0.00      0.00
  313498               0.00      0.00      0.00
  314563             137.99      0.56      0.17
  329220            -137.99      0.10      0.00
  140785               0.00      0.00      0.00  PRV
  294718             137.99      6.26     15.50  PRV
   